<?xml version="1.0" encoding="UTF-8"?>

<!-- generated on 2025-11-17T21:25:14.051016+07:00 by Eclipse SUMO netedit 1.25.0
-->

<additional xmlns:xsi="http://www.w3.org/2001/XMLSchema-instance" xsi:noNamespaceSchemaLocation="http://sumo.dlr.de/xsd/additional_file.xsd">
    <!-- Detectors -->
    <inductionLoop id="e1_0" lane="723249849#1_2" pos="40.86" period="300.00" file="e1_0.xml"/>
    <inductionLoop id="e1_1" lane="720360985_1" pos="19.70" period="300.00" file="e1_1.xml"/>
    <inductionLoop id="e1_2" lane="720360983#1_1" pos="43.20" period="300.00" file="e1_2.xml"/>
    <inductionLoop id="e1_3" lane="211840922#1_1" pos="5.06" period="300.00" file="e1_3.xml"/>
    <inductionLoop id="e1_4" lane="1215970290#0_0" pos="45.82" period="300.00" file="e1_4.xml"/>
    <inductionLoop id="e1_5" lane="720360982#0_0" pos="48.90" period="300.00" file="e1_5.xml"/>
    <instantInductionLoop id="e1i_0" lane="1215970290#0_0" pos="40.43" file="e1i_0.xml"/>
    <instantInductionLoop id="e1i_1" lane="211840922#1_1" pos="0.78" file="e1i_1.xml"/>
    <instantInductionLoop id="e1i_2" lane="723249849#1_2" pos="36.64" file="e1i_2.xml"/>
    <instantInductionLoop id="e1i_3" lane="720360985_1" pos="14.95" file="e1i_3.xml"/>
    <instantInductionLoop id="e1i_4" lane="720360983#1_1" pos="38.43" file="e1i_4.xml"/>
    <laneAreaDetector id="e2_0" lane="1215970290#0_1" pos="37.26" length="10.00" period="300.00" file="e2_0.xml"/>
    <laneAreaDetector id="e2_2" lane="723249849#1_1" pos="33.78" length="10.00" period="300.00" file="e2_2.xml"/>
</additional>
