<?xml version="1.0" encoding="UTF-8"?>
<!--
 Copyright (c) 2025 Green Wave Team
 
 This software is released under the MIT License.
 https://opensource.org/licenses/MIT
-->



<!-- generated on 2025-11-17T21:10:46.530571+07:00 by Eclipse SUMO netedit 1.25.0
<neteditConfiguration xmlns:xsi="http://www.w3.org/2001/XMLSchema-instance" xsi:noNamespaceSchemaLocation="http://sumo.dlr.de/xsd/neteditConfiguration.xsd">

    <input>
        <sumocfg-file value="D:\OLP\OLP_2025\SUMO_RL\sumo_files\Nga4ThuDuc\Nga4ThuDuc.sumocfg"/>
        <route-files value="D:\OLP\OLP_2025\SUMO_RL\sumo_files\Nga4ThuDuc\routes.rou.xml"/>
        <sumo-net-file value="D:\OLP\OLP_2025\SUMO_RL\sumo_files\Nga4ThuDuc\Nga4ThuDuc.net.xml"/>
    </input>

    <output>
        <output-file value="D:\OLP\OLP_2025\SUMO_RL\sumo_files\Nga4ThuDuc\Nga4ThuDuc.net.xml"/>
    </output>

    <processing>
        <geometry.min-radius.fix.railways value="false"/>
        <geometry.avoid-overlap value="false"/>
        <geometry.max-grade.fix value="false"/>
        <offset.disable-normalization value="true"/>
        <lefthand value="0"/>
    </processing>

    <junctions>
        <no-turnarounds value="true"/>
        <junctions.corner-detail value="5"/>
        <junctions.limit-turn-speed value="5.50"/>
        <rectangular-lane-cut value="0"/>
    </junctions>

    <pedestrian>
        <walkingareas value="0"/>
    </pedestrian>

</neteditConfiguration>
-->

<net version="1.20" junctionCornerDetail="5" limitTurnSpeed="5.50" avoidOverlap="0" xmlns:xsi="http://www.w3.org/2001/XMLSchema-instance" xsi:noNamespaceSchemaLocation="http://sumo.dlr.de/xsd/net_file.xsd">

    <location netOffset="-687145.16,-1192781.96" convBoundary="0.00,0.00,39784.24,663221.70" origBoundary="106.711631,10.785468,109.287064,16.776349" projParameter="+proj=utm +zone=48 +ellps=WGS84 +datum=WGS84 +units=m +no_defs"/>

    <type id="highway.footway" priority="1" numLanes="1" speed="2.78" allow="pedestrian" oneway="1" width="2.00"/>
    <type id="highway.residential" priority="3" numLanes="1" speed="13.89" disallow="tram rail_urban rail rail_electric rail_fast ship container cable_car subway aircraft wheelchair scooter drone" oneway="0"/>
    <type id="highway.secondary" priority="11" numLanes="1" speed="27.78" disallow="tram rail_urban rail rail_electric rail_fast ship container cable_car subway aircraft wheelchair scooter drone" oneway="0"/>
    <type id="highway.secondary_link" priority="6" numLanes="1" speed="22.22" disallow="tram rail_urban rail rail_electric rail_fast ship container cable_car subway aircraft wheelchair scooter drone" oneway="0"/>
    <type id="highway.service" priority="1" numLanes="1" speed="5.56" allow="pedestrian delivery bicycle" oneway="0"/>
    <type id="highway.tertiary" priority="10" numLanes="1" speed="22.22" disallow="tram rail_urban rail rail_electric rail_fast ship container cable_car subway aircraft wheelchair scooter drone" oneway="0"/>
    <type id="highway.trunk" priority="13" numLanes="2" speed="27.78" disallow="pedestrian bicycle tram rail_urban rail rail_electric rail_fast ship container cable_car subway aircraft wheelchair scooter drone" oneway="0"/>
    <type id="highway.trunk_link" priority="8" numLanes="1" speed="22.22" disallow="pedestrian bicycle tram rail_urban rail rail_electric rail_fast ship container cable_car subway aircraft wheelchair scooter drone" oneway="0"/>
    <type id="railway.highspeed" priority="21" numLanes="1" speed="69.44" allow="rail_fast" oneway="1"/>
    <type id="railway.subway" priority="18" numLanes="1" speed="27.78" allow="subway" oneway="1"/>

    <edge id=":10111266667_0" function="internal">
        <lane id=":10111266667_0_0" index="0" disallow="tram rail_urban rail rail_electric rail_fast ship container cable_car subway aircraft wheelchair scooter drone" speed="27.78" length="3.43" shape="6752.06,7094.64 6754.63,7092.53"/>
        <lane id=":10111266667_0_1" index="1" disallow="tram rail_urban rail rail_electric rail_fast ship container cable_car subway aircraft wheelchair scooter drone" speed="27.78" length="3.43" shape="6754.04,7097.16 6756.77,7094.91"/>
    </edge>
    <edge id=":10111266668_0" function="internal">
        <lane id=":10111266668_0_0" index="0" disallow="tram rail_urban rail rail_electric rail_fast ship container cable_car subway aircraft wheelchair scooter drone" speed="27.78" length="4.29" shape="6769.09,7108.52 6765.55,7111.11"/>
        <lane id=":10111266668_0_1" index="1" disallow="tram rail_urban rail rail_electric rail_fast ship container cable_car subway aircraft wheelchair scooter drone" speed="27.78" length="4.29" shape="6767.11,7106.01 6763.71,7108.49"/>
    </edge>
    <edge id=":10128118042_0" function="internal">
        <lane id=":10128118042_0_0" index="0" disallow="pedestrian bicycle tram rail_urban rail rail_electric rail_fast ship container cable_car subway aircraft wheelchair scooter drone" speed="16.67" length="5.66" shape="6753.68,7084.88 6749.71,7080.14"/>
        <lane id=":10128118042_0_1" index="1" disallow="pedestrian bicycle tram rail_urban rail rail_electric rail_fast ship container cable_car subway aircraft wheelchair scooter drone" speed="16.67" length="5.66" shape="6756.04,7082.73 6752.25,7078.18"/>
        <lane id=":10128118042_0_2" index="2" disallow="pedestrian bicycle tram rail_urban rail rail_electric rail_fast ship container cable_car subway aircraft wheelchair scooter drone" speed="16.67" length="5.66" shape="6758.41,7080.57 6754.78,7076.23"/>
        <lane id=":10128118042_0_3" index="3" disallow="pedestrian bicycle tram rail_urban rail rail_electric rail_fast ship container cable_car subway aircraft wheelchair scooter drone" speed="16.67" length="5.66" shape="6760.77,7078.41 6757.32,7074.27"/>
        <lane id=":10128118042_0_4" index="4" disallow="pedestrian bicycle tram rail_urban rail rail_electric rail_fast ship container cable_car subway aircraft wheelchair scooter drone" speed="16.67" length="5.66" shape="6763.14,7076.26 6759.85,7072.32"/>
    </edge>
    <edge id=":11266443785_0" function="internal">
        <lane id=":11266443785_0_0" index="0" disallow="tram rail_urban rail rail_electric rail_fast ship container cable_car subway aircraft wheelchair scooter drone" speed="13.89" length="8.65" shape="6706.71,7155.25 6704.18,7155.65 6702.44,7155.93 6700.69,7156.10 6698.13,7156.18"/>
    </edge>
    <edge id=":11266443785_1" function="internal">
        <lane id=":11266443785_1_0" index="0" disallow="tram rail_urban rail rail_electric rail_fast ship container cable_car subway aircraft wheelchair scooter drone" speed="9.36" length="2.74" shape="6704.79,7151.57 6702.85,7153.50"/>
    </edge>
    <edge id=":11266443785_2" function="internal">
        <lane id=":11266443785_2_0" index="0" disallow="tram rail_urban rail rail_electric rail_fast ship container cable_car subway aircraft wheelchair scooter drone" speed="9.36" length="5.52" shape="6702.85,7153.50 6702.77,7153.58 6700.99,7155.01 6699.44,7155.88 6698.13,7156.18"/>
    </edge>
    <edge id=":11266460834_0" function="internal">
        <lane id=":11266460834_0_0" index="0" disallow="tram rail_urban rail rail_electric rail_fast ship container cable_car subway aircraft wheelchair scooter drone" speed="10.80" length="15.13" shape="6731.07,7159.90 6727.89,7156.77 6724.65,7154.68 6721.36,7153.62 6718.00,7153.60"/>
    </edge>
    <edge id=":11266460834_1" function="internal">
        <lane id=":11266460834_1_0" index="0" disallow="tram rail_urban rail rail_electric rail_fast ship container cable_car subway aircraft wheelchair scooter drone" speed="27.78" length="16.48" shape="6731.07,7159.90 6720.40,7147.34"/>
    </edge>
    <edge id=":11266460834_2" function="internal">
        <lane id=":11266460834_2_0" index="0" disallow="tram rail_urban rail rail_electric rail_fast ship container cable_car subway aircraft wheelchair scooter drone" speed="3.65" length="1.44" shape="6731.07,7159.90 6730.89,7158.47"/>
    </edge>
    <edge id=":11266460834_9" function="internal">
        <lane id=":11266460834_9_0" index="0" disallow="tram rail_urban rail rail_electric rail_fast ship container cable_car subway aircraft wheelchair scooter drone" speed="3.65" length="3.23" shape="6730.89,7158.47 6731.23,7157.64 6732.10,7157.42 6733.49,7157.81"/>
    </edge>
    <edge id=":11266460834_3" function="internal">
        <lane id=":11266460834_3_0" index="0" disallow="pedestrian bicycle tram rail_urban rail rail_electric rail_fast ship container cable_car subway aircraft wheelchair scooter drone" speed="5.87" length="9.11" shape="6735.28,7150.84 6732.95,7152.10 6731.88,7153.68 6732.06,7155.58 6733.49,7157.81"/>
    </edge>
    <edge id=":11266460834_4" function="internal">
        <lane id=":11266460834_4_0" index="0" disallow="pedestrian bicycle tram rail_urban rail rail_electric rail_fast ship container cable_car subway aircraft wheelchair scooter drone" speed="18.05" length="17.57" shape="6735.28,7150.84 6729.82,7152.46 6725.42,7153.09 6721.64,7153.29 6718.00,7153.60"/>
    </edge>
    <edge id=":11266460834_5" function="internal">
        <lane id=":11266460834_5_0" index="0" disallow="pedestrian bicycle tram rail_urban rail rail_electric rail_fast ship container cable_car subway aircraft wheelchair scooter drone" speed="9.34" length="14.59" shape="6734.16,7147.84 6729.48,7149.23 6725.63,7149.61 6722.60,7148.98 6720.40,7147.34"/>
    </edge>
    <edge id=":11266460834_6" function="internal">
        <lane id=":11266460834_6_0" index="0" disallow="tram rail_urban rail rail_electric rail_fast ship container cable_car subway aircraft wheelchair scooter drone" speed="27.78" length="16.42" shape="6722.86,7145.29 6733.49,7157.81"/>
    </edge>
    <edge id=":11266460834_7" function="internal">
        <lane id=":11266460834_7_0" index="0" disallow="tram rail_urban rail rail_electric rail_fast ship container cable_car subway aircraft wheelchair scooter drone" speed="6.59" length="3.56" shape="6722.86,7145.29 6724.67,7148.35"/>
    </edge>
    <edge id=":11266460834_8" function="internal">
        <lane id=":11266460834_8_0" index="0" disallow="tram rail_urban rail rail_electric rail_fast ship container cable_car subway aircraft wheelchair scooter drone" speed="3.65" length="1.44" shape="6722.86,7145.29 6723.01,7146.73"/>
    </edge>
    <edge id=":11266460834_10" function="internal">
        <lane id=":11266460834_10_0" index="0" disallow="tram rail_urban rail rail_electric rail_fast ship container cable_car subway aircraft wheelchair scooter drone" speed="6.59" length="9.62" shape="6724.67,7148.35 6724.47,7150.76 6722.25,7152.51 6718.00,7153.60"/>
    </edge>
    <edge id=":11266460834_11" function="internal">
        <lane id=":11266460834_11_0" index="0" disallow="tram rail_urban rail rail_electric rail_fast ship container cable_car subway aircraft wheelchair scooter drone" speed="3.65" length="3.23" shape="6723.01,7146.73 6722.65,7147.55 6721.78,7147.75 6720.40,7147.34"/>
    </edge>
    <edge id=":11402823745_0" function="internal">
        <lane id=":11402823745_0_0" index="0" allow="pedestrian delivery bicycle" speed="3.65" length="4.67" shape="7012.34,7194.46 7012.85,7195.81 7012.71,7196.69 7011.92,7197.11 7010.48,7197.06"/>
    </edge>
    <edge id=":11402823746_0" function="internal">
        <lane id=":11402823746_0_0" index="0" allow="pedestrian delivery bicycle" speed="5.01" length="5.04" shape="6976.44,7172.62 6975.21,7171.98 6974.08,7171.90 6973.05,7172.37 6972.12,7173.40"/>
    </edge>
    <edge id=":11402823746_1" function="internal">
        <lane id=":11402823746_1_0" index="0" allow="pedestrian delivery bicycle" speed="6.94" length="10.17" shape="6976.44,7172.62 6974.40,7170.68 6973.43,7168.57 6973.53,7166.27 6974.71,7163.81"/>
    </edge>
    <edge id=":11402823746_2" function="internal">
        <lane id=":11402823746_2_0" index="0" allow="pedestrian delivery bicycle" speed="3.65" length="4.67" shape="6976.44,7172.62 6975.93,7171.27 6976.07,7170.39 6976.86,7169.97 6978.31,7170.02"/>
    </edge>
    <edge id=":11402823746_3" function="internal">
        <lane id=":11402823746_3_0" index="0" allow="pedestrian delivery bicycle" speed="5.15" length="5.13" shape="6977.36,7165.59 6976.78,7166.82 6976.75,7167.97 6977.26,7169.03 6978.31,7170.02"/>
    </edge>
    <edge id=":11402823746_4" function="internal">
        <lane id=":11402823746_4_0" index="0" disallow="tram rail_urban rail rail_electric rail_fast ship container cable_car subway aircraft wheelchair scooter drone" speed="13.89" length="9.40" shape="6977.36,7165.59 6972.12,7173.40"/>
    </edge>
    <edge id=":11402823746_5" function="internal">
        <lane id=":11402823746_5_0" index="0" disallow="tram rail_urban rail rail_electric rail_fast ship container cable_car subway aircraft wheelchair scooter drone" speed="13.89" length="9.41" shape="6969.47,7171.62 6974.71,7163.81"/>
    </edge>
    <edge id=":11402823746_6" function="internal">
        <lane id=":11402823746_6_0" index="0" allow="pedestrian delivery bicycle" speed="6.84" length="3.29" shape="6969.47,7171.62 6971.37,7169.51 6971.78,7169.32"/>
    </edge>
    <edge id=":11402823746_7" function="internal">
        <lane id=":11402823746_7_0" index="0" allow="pedestrian delivery bicycle" speed="6.84" length="7.03" shape="6971.78,7169.32 6973.47,7168.54 6975.79,7168.71 6978.31,7170.02"/>
    </edge>
    <edge id=":11789253357_0" function="internal">
        <lane id=":11789253357_0_0" index="0" disallow="tram rail_urban rail rail_electric rail_fast ship container cable_car subway aircraft wheelchair scooter drone" speed="27.29" length="16.20" shape="6902.62,6986.25 6899.31,6989.26 6897.40,6991.68 6895.89,6994.44 6893.80,6998.45"/>
        <lane id=":11789253357_0_1" index="1" disallow="tram rail_urban rail rail_electric rail_fast ship container cable_car subway aircraft wheelchair scooter drone" speed="27.78" length="16.20" shape="6900.57,6983.79 6896.99,6987.03 6894.91,6989.63 6893.27,6992.59 6891.00,6996.91"/>
        <lane id=":11789253357_0_2" index="2" disallow="tram rail_urban rail rail_electric rail_fast ship container cable_car subway aircraft wheelchair scooter drone" speed="27.78" length="16.20" shape="6900.57,6983.79 6888.17,6995.35"/>
    </edge>
    <edge id=":11789253357_3" function="internal">
        <lane id=":11789253357_3_0" index="0" disallow="tram rail_urban rail rail_electric rail_fast ship container cable_car subway aircraft wheelchair scooter drone" speed="3.65" length="1.44" shape="6900.57,6983.79 6899.14,6983.95"/>
    </edge>
    <edge id=":11789253357_8" function="internal">
        <lane id=":11789253357_8_0" index="0" disallow="tram rail_urban rail rail_electric rail_fast ship container cable_car subway aircraft wheelchair scooter drone" speed="3.65" length="3.23" shape="6899.14,6983.95 6898.32,6983.59 6898.11,6982.72 6898.52,6981.33"/>
    </edge>
    <edge id=":11789253357_4" function="internal">
        <lane id=":11789253357_4_0" index="0" disallow="tram rail_urban rail rail_electric rail_fast ship container cable_car subway aircraft wheelchair scooter drone" speed="21.82" length="15.70" shape="6882.80,6984.39 6887.15,6983.40 6890.19,6982.70 6892.95,6981.46 6896.47,6978.88"/>
        <lane id=":11789253357_4_1" index="1" disallow="tram rail_urban rail rail_electric rail_fast ship container cable_car subway aircraft wheelchair scooter drone" speed="22.84" length="15.70" shape="6882.80,6984.39 6887.66,6983.77 6891.26,6984.02 6894.56,6983.69 6898.52,6981.33"/>
    </edge>
    <edge id=":11789253357_6" function="internal">
        <lane id=":11789253357_6_0" index="0" allow="bicycle" speed="7.41" length="9.49" shape="6883.62,6987.48 6889.58,6986.62 6892.80,6987.90"/>
        <lane id=":11789253357_6_1" index="1" disallow="tram rail_urban rail rail_electric rail_fast ship container cable_car subway aircraft wheelchair scooter drone" speed="6.08" length="6.29" shape="6884.44,6990.58 6889.59,6989.58 6890.61,6989.78"/>
    </edge>
    <edge id=":11789253357_9" function="internal">
        <lane id=":11789253357_9_0" index="0" allow="bicycle" speed="7.41" length="9.48" shape="6892.80,6987.90 6893.27,6991.33 6891.00,6996.91"/>
        <lane id=":11789253357_9_1" index="0" disallow="tram rail_urban rail rail_electric rail_fast ship container cable_car subway aircraft wheelchair scooter drone" speed="6.08" length="8.04" shape="6890.61,6989.78 6891.93,6990.04 6891.46,6991.96 6888.17,6995.35"/>
    </edge>
    <edge id=":12073258445_0" function="internal">
        <lane id=":12073258445_0_0" index="0" allow="pedestrian delivery bicycle" speed="3.65" length="4.67" shape="7007.27,7176.68 7006.71,7175.35 7006.81,7174.46 7007.59,7174.01 7009.03,7174.00"/>
    </edge>
    <edge id=":12794530693_0" function="internal">
        <lane id=":12794530693_0_0" index="0" disallow="tram rail_urban rail rail_electric rail_fast ship container cable_car subway aircraft wheelchair scooter drone" speed="27.78" length="5.03" shape="6736.40,7166.06 6733.11,7162.26"/>
    </edge>
    <edge id=":12794530693_1" function="internal">
        <lane id=":12794530693_1_0" index="0" disallow="tram rail_urban rail rail_electric rail_fast ship container cable_car subway aircraft wheelchair scooter drone" speed="27.78" length="5.03" shape="6735.53,7160.16 6738.82,7163.97"/>
    </edge>
    <edge id=":12794530696_0" function="internal">
        <lane id=":12794530696_0_0" index="0" disallow="pedestrian bicycle tram rail_urban rail rail_electric rail_fast ship container cable_car subway aircraft wheelchair scooter drone" speed="22.22" length="5.34" shape="6686.39,7117.31 6691.20,7114.99"/>
    </edge>
    <edge id=":12969661020_0" function="internal">
        <lane id=":12969661020_0_0" index="0" disallow="pedestrian bicycle tram rail_urban rail rail_electric rail_fast ship container cable_car subway aircraft wheelchair scooter drone" speed="16.67" length="11.07" shape="6752.21,7003.38 6759.18,7011.98"/>
        <lane id=":12969661020_0_1" index="1" disallow="pedestrian bicycle tram rail_urban rail rail_electric rail_fast ship container cable_car subway aircraft wheelchair scooter drone" speed="16.67" length="11.07" shape="6749.72,7005.40 6756.70,7014.00"/>
    </edge>
    <edge id=":12969661020_2" function="internal">
        <lane id=":12969661020_2_0" index="0" disallow="pedestrian bicycle tram rail_urban rail rail_electric rail_fast ship container cable_car subway aircraft wheelchair scooter drone" speed="5.74" length="6.70" shape="6749.72,7005.40 6751.12,7007.38 6751.84,7009.02 6751.88,7010.33 6751.24,7011.32"/>
    </edge>
    <edge id=":12969661021_0" function="internal">
        <lane id=":12969661021_0_0" index="0" disallow="pedestrian bicycle tram rail_urban rail rail_electric rail_fast ship container cable_car subway aircraft wheelchair scooter drone" speed="5.84" length="6.85" shape="6751.09,7011.45 6750.47,7012.43 6750.52,7013.77 6751.25,7015.47 6752.65,7017.54"/>
    </edge>
    <edge id=":12969661021_1" function="internal">
        <lane id=":12969661021_1_0" index="0" disallow="pedestrian bicycle tram rail_urban rail rail_electric rail_fast ship container cable_car subway aircraft wheelchair scooter drone" speed="22.22" length="11.23" shape="6751.09,7011.45 6742.54,7018.73"/>
    </edge>
    <edge id=":12969661021_2" function="internal">
        <lane id=":12969661021_2_0" index="0" disallow="pedestrian bicycle tram rail_urban rail rail_electric rail_fast ship container cable_car subway aircraft wheelchair scooter drone" speed="16.67" length="11.18" shape="6745.80,7008.69 6752.65,7017.54"/>
        <lane id=":12969661021_2_1" index="1" disallow="pedestrian bicycle tram rail_urban rail rail_electric rail_fast ship container cable_car subway aircraft wheelchair scooter drone" speed="16.67" length="11.18" shape="6743.27,7010.65 6750.12,7019.50"/>
    </edge>
    <edge id=":12969661021_4" function="internal">
        <lane id=":12969661021_4_0" index="0" disallow="pedestrian bicycle tram rail_urban rail rail_electric rail_fast ship container cable_car subway aircraft wheelchair scooter drone" speed="6.66" length="9.14" shape="6743.27,7010.65 6744.53,7012.83 6744.82,7014.91 6744.16,7016.87 6742.54,7018.73"/>
    </edge>
    <edge id=":2024972708_0" function="internal">
        <lane id=":2024972708_0_0" index="0" disallow="tram rail_urban rail rail_electric rail_fast ship container cable_car subway aircraft wheelchair scooter drone" speed="7.23" length="12.51" shape="6719.74,7146.56 6717.26,7144.40 6714.65,7143.74 6711.94,7144.58 6709.11,7146.93"/>
    </edge>
    <edge id=":2024972708_1" function="internal">
        <lane id=":2024972708_1_0" index="0" disallow="tram rail_urban rail rail_electric rail_fast ship container cable_car subway aircraft wheelchair scooter drone" speed="11.36" length="14.59" shape="6719.74,7146.56 6717.24,7144.22 6714.21,7142.59 6710.67,7141.66 6706.61,7141.44"/>
    </edge>
    <edge id=":2024972708_2" function="internal">
        <lane id=":2024972708_2_0" index="0" disallow="tram rail_urban rail rail_electric rail_fast ship container cable_car subway aircraft wheelchair scooter drone" speed="3.65" length="4.67" shape="6719.74,7146.56 6719.59,7145.13 6719.95,7144.31 6720.82,7144.10 6722.20,7144.51"/>
    </edge>
    <edge id=":2024972708_3" function="internal">
        <lane id=":2024972708_3_0" index="0" disallow="tram rail_urban rail rail_electric rail_fast ship container cable_car subway aircraft wheelchair scooter drone" speed="6.17" length="9.05" shape="6723.52,7137.02 6721.53,7138.60 6720.64,7140.37 6720.87,7142.34 6722.20,7144.51"/>
    </edge>
    <edge id=":2024972708_4" function="internal">
        <lane id=":2024972708_4_0" index="0" disallow="tram rail_urban rail rail_electric rail_fast ship container cable_car subway aircraft wheelchair scooter drone" speed="20.84" length="17.56" shape="6723.52,7137.02 6718.56,7139.91 6714.76,7142.25 6711.73,7144.46 6709.11,7146.93"/>
    </edge>
    <edge id=":2024972708_5" function="internal">
        <lane id=":2024972708_5_0" index="0" disallow="tram rail_urban rail rail_electric rail_fast ship container cable_car subway aircraft wheelchair scooter drone" speed="19.65" length="16.21" shape="6721.92,7134.25 6717.73,7136.53 6714.62,7137.65 6711.31,7138.07 6706.52,7138.24"/>
    </edge>
    <edge id=":2024972787_0" function="internal">
        <lane id=":2024972787_0_0" index="0" disallow="tram rail_urban rail rail_electric rail_fast ship container cable_car subway aircraft wheelchair scooter drone" speed="6.92" length="10.75" shape="6703.58,7117.39 6705.24,7120.46 6707.12,7122.32 6709.23,7122.97 6711.57,7122.40"/>
    </edge>
    <edge id=":2024972787_1" function="internal">
        <lane id=":2024972787_1_0" index="0" disallow="tram rail_urban rail rail_electric rail_fast ship container cable_car subway aircraft wheelchair scooter drone" speed="3.65" length="4.67" shape="6703.58,7117.39 6703.30,7118.80 6702.72,7119.48 6701.83,7119.42 6700.63,7118.63"/>
    </edge>
    <edge id=":2024972787_2" function="internal">
        <lane id=":2024972787_2_0" index="0" disallow="tram rail_urban rail rail_electric rail_fast ship container cable_car subway aircraft wheelchair scooter drone" speed="5.86" length="9.12" shape="6696.75,7124.65 6699.36,7124.20 6700.88,7123.05 6701.30,7121.19 6700.63,7118.63"/>
    </edge>
    <edge id=":2024972787_3" function="internal">
        <lane id=":2024972787_3_0" index="0" disallow="tram rail_urban rail rail_electric rail_fast ship container cable_car subway aircraft wheelchair scooter drone" speed="23.26" length="15.58" shape="6696.75,7124.65 6701.27,7124.66 6704.43,7124.66 6707.45,7124.09 6711.57,7122.40"/>
        <lane id=":2024972787_3_1" index="1" disallow="tram rail_urban rail rail_electric rail_fast ship container cable_car subway aircraft wheelchair scooter drone" speed="27.78" length="15.58" shape="6696.85,7127.85 6701.57,7127.71 6704.82,7127.45 6707.99,7126.80 6712.52,7125.47"/>
    </edge>
    <edge id=":2024972799_0" function="internal">
        <lane id=":2024972799_0_0" index="0" disallow="tram rail_urban rail rail_electric rail_fast ship container cable_car subway aircraft wheelchair scooter drone" speed="7.33" length="10.06" shape="7202.07,6805.84 7199.91,6803.85 7197.71,6802.81 7195.47,6802.72 7193.19,6803.58"/>
    </edge>
    <edge id=":2024972799_1" function="internal">
        <lane id=":2024972799_1_0" index="0" disallow="tram rail_urban rail rail_electric rail_fast ship container cable_car subway aircraft wheelchair scooter drone" speed="7.71" length="14.95" shape="7202.07,6805.84 7199.79,6802.29 7199.38,6799.06 7200.82,6796.13 7204.12,6793.51"/>
    </edge>
    <edge id=":2024972799_2" function="internal">
        <lane id=":2024972799_2_0" index="0" disallow="tram rail_urban rail rail_electric rail_fast ship container cable_car subway aircraft wheelchair scooter drone" speed="3.65" length="4.67" shape="7202.07,6805.84 7201.89,6804.41 7202.23,6803.58 7203.10,6803.36 7204.49,6803.74"/>
    </edge>
    <edge id=":2024972799_3" function="internal">
        <lane id=":2024972799_3_0" index="0" disallow="tram rail_urban rail rail_electric rail_fast ship container cable_car subway aircraft wheelchair scooter drone" speed="6.14" length="9.06" shape="7205.73,6796.28 7203.73,6797.86 7202.86,6799.64 7203.11,6801.60 7204.49,6803.74"/>
    </edge>
    <edge id=":2024972799_4" function="internal">
        <lane id=":2024972799_4_0" index="0" disallow="tram rail_urban rail rail_electric rail_fast ship container cable_car subway aircraft wheelchair scooter drone" speed="27.78" length="14.51" shape="7205.73,6796.28 7193.19,6803.58"/>
    </edge>
    <edge id=":2024972799_5" function="internal">
        <lane id=":2024972799_5_0" index="0" disallow="tram rail_urban rail rail_electric rail_fast ship container cable_car subway aircraft wheelchair scooter drone" speed="3.65" length="1.44" shape="7205.73,6796.28 7204.29,6796.19"/>
    </edge>
    <edge id=":2024972799_9" function="internal">
        <lane id=":2024972799_9_0" index="0" disallow="tram rail_urban rail rail_electric rail_fast ship container cable_car subway aircraft wheelchair scooter drone" speed="3.65" length="3.23" shape="7204.29,6796.19 7203.54,6795.70 7203.49,6794.81 7204.12,6793.51"/>
    </edge>
    <edge id=":2024972799_6" function="internal">
        <lane id=":2024972799_6_0" index="0" disallow="tram rail_urban rail rail_electric rail_fast ship container cable_car subway aircraft wheelchair scooter drone" speed="27.78" length="14.52" shape="7191.58,6800.82 7204.12,6793.51"/>
    </edge>
    <edge id=":2024972799_7" function="internal">
        <lane id=":2024972799_7_0" index="0" disallow="tram rail_urban rail rail_electric rail_fast ship container cable_car subway aircraft wheelchair scooter drone" speed="8.70" length="3.81" shape="7191.58,6800.82 7194.97,6799.49 7195.13,6799.50"/>
    </edge>
    <edge id=":2024972799_8" function="internal">
        <lane id=":2024972799_8_0" index="0" disallow="tram rail_urban rail rail_electric rail_fast ship container cable_car subway aircraft wheelchair scooter drone" speed="3.65" length="1.44" shape="7191.58,6800.82 7193.02,6800.90"/>
    </edge>
    <edge id=":2024972799_10" function="internal">
        <lane id=":2024972799_10_0" index="0" disallow="tram rail_urban rail rail_electric rail_fast ship container cable_car subway aircraft wheelchair scooter drone" speed="8.70" length="10.74" shape="7195.13,6799.50 7198.25,6799.54 7201.42,6800.96 7204.49,6803.74"/>
    </edge>
    <edge id=":2024972799_11" function="internal">
        <lane id=":2024972799_11_0" index="0" disallow="tram rail_urban rail rail_electric rail_fast ship container cable_car subway aircraft wheelchair scooter drone" speed="3.65" length="3.23" shape="7193.02,6800.90 7193.76,6801.39 7193.82,6802.29 7193.19,6803.58"/>
    </edge>
    <edge id=":2024972876_0" function="internal">
        <lane id=":2024972876_0_0" index="0" disallow="tram rail_urban rail rail_electric rail_fast ship container cable_car subway aircraft wheelchair scooter drone" speed="10.00" length="15.08" shape="6514.35,7152.99 6511.87,7148.41 6509.39,7145.14 6506.89,7143.18 6504.39,7142.52"/>
    </edge>
    <edge id=":2024972876_1" function="internal">
        <lane id=":2024972876_1_0" index="0" allow="pedestrian delivery bicycle" speed="9.72" length="20.76" shape="6514.35,7152.99 6512.57,7148.68 6510.75,7143.23 6509.30,7137.69 6508.68,7133.11"/>
    </edge>
    <edge id=":2024972876_2" function="internal">
        <lane id=":2024972876_2_0" index="0" disallow="tram rail_urban rail rail_electric rail_fast ship container cable_car subway aircraft wheelchair scooter drone" speed="8.17" length="19.85" shape="6514.35,7152.99 6512.34,7147.01 6512.78,7142.74 6515.66,7140.18 6520.99,7139.33"/>
    </edge>
    <edge id=":2024972876_3" function="internal">
        <lane id=":2024972876_3_0" index="0" disallow="tram rail_urban rail rail_electric rail_fast ship container cable_car subway aircraft wheelchair scooter drone" speed="3.65" length="4.67" shape="6514.35,7152.99 6514.56,7151.57 6515.11,7150.86 6516.00,7150.88 6517.24,7151.63"/>
    </edge>
    <edge id=":2024972876_4" function="internal">
        <lane id=":2024972876_4_0" index="0" disallow="tram rail_urban rail rail_electric rail_fast ship container cable_car subway aircraft wheelchair scooter drone" speed="5.76" length="9.17" shape="6520.98,7145.73 6518.30,7146.10 6516.78,7147.20 6516.43,7149.05 6517.24,7151.63"/>
    </edge>
    <edge id=":2024972876_5" function="internal">
        <lane id=":2024972876_5_0" index="0" disallow="tram rail_urban rail rail_electric rail_fast ship container cable_car subway aircraft wheelchair scooter drone" speed="27.78" length="16.96" shape="6520.98,7145.73 6515.53,7145.23 6511.39,7144.12 6507.90,7143.02 6504.39,7142.52"/>
    </edge>
    <edge id=":2024972876_6" function="internal">