<?xml version="1.0" encoding="UTF-8"?>
<!-- generated on 2025-11-17T21:25:14.052011+07:00 by Eclipse SUMO sumo 1.25.0 -->
<sumoConfiguration xmlns:xsi="http://www.w3.org/2001/XMLSchema-instance" xsi:noNamespaceSchemaLocation="http://sumo.dlr.de/xsd/sumoConfiguration.xsd">

    <input>
        <net-file value="Nga4ThuDuc.net.xml"/>
        <route-files value="routes.rou.xml"/>
        <additional-files value="Nga4ThuDuc.add.xml"/>
    </input>

</sumoConfiguration>
