<!--
 Copyright (c) 2025 Green Wave Team
 
 This software is released under the MIT License.
 https://opensource.org/licenses/MIT
-->

<?xml version="1.0" encoding="UTF-8"?>

<!-- generated on 2025-11-17 21:05:05.011237 by Eclipse SUMO randomTrips.py v1_25_0+0000-ac6c5a6752d
<configuration>
    <net-file value="Nga4ThuDuc.net.xml"/>
    <route-file value="routes.rou.xml"/>
    <end value="200.0"/>
</configuration>
-->

<!-- generated on 2025-11-17T21:05:04.932538+07:00 by Eclipse SUMO duarouter 1.25.0
<duarouterConfiguration xmlns:xsi="http://www.w3.org/2001/XMLSchema-instance" xsi:noNamespaceSchemaLocation="http://sumo.dlr.de/xsd/duarouterConfiguration.xsd">

    <input>
        <net-file value="Nga4ThuDuc.net.xml"/>
        <route-files value="trips.trips.xml"/>
    </input>

    <output>
        <output-file value="routes.rou.xml"/>
        <alternatives-output value="NUL"/>
    </output>

    <time>
        <begin value="0"/>
        <end value="200.0"/>
    </time>

    <report>
        <no-warnings value="true"/>
        <ignore-errors value="true"/>
        <no-step-log value="true"/>
    </report>

</duarouterConfiguration><
-->

<routes xmlns:xsi="http://www.w3.org/2001/XMLSchema-instance" xsi:noNamespaceSchemaLocation="http://sumo.dlr.de/xsd/routes_file.xsd">
    <vType id="car" accel="2.6" decel="4.5" sigma="0.5" length="5" minGap="2.5" maxSpeed="16.67" 
        emissionClass="HBEFA3/PC_G_EU4" guiShape="passenger"/>
    <vehicle type="car" id="0" depart="0.00">
        <route edges="-606920724#2 -606920724#1 -606920724#0 -1270828725 723249849#0 723249849#1 1272225923#0 1272225923#1 1272225923#2 1137128326 720361263 1269264064#0 1269264064#1 191937819#0 191937819#1 -330532340"/>
    </vehicle>
    <vehicle type="car" id="1" depart="1.00">
        <route edges="404368564#0 404368564#1 404368564#2 719494700 720361262 722556033 722556034#0 722556034#1 191937848#0 191937848#1 191937848#2 1270828724 722357075 191937846#0 191937846#1 191937846#2 191937846#3 306704225"/>
    </vehicle>
    <vehicle type="car" id="2" depart="2.00">
        <route edges="720360983#0 720360983#1 720360983#2 719494700 720361262 722556033 1272225924#0 1272225924#1 1272225924#2 720360986 1149832778#0 1149832778#1 1149832778#2 -191937837#7 -191937837#6 -191937837#5 -191937837#4 -191937837#3"/>
    </vehicle>
    <vehicle type="car" id="3" depart="3.00">
        <route edges="1270828725 -1270828725 723249849#0 723249849#1 1272225923#0 1272225923#1 1272225923#2 1137128326 720361263 1269264064#0 1269264064#1 191937819#0 191937819#1 -330532340 1215966886 -1215966886"/>
    </vehicle>
    <vehicle type="car" id="4" depart="4.00">
        <route edges="-32577544#4 -32577544#3 -32577544#2 -32577544#1 -32577544#0 -722357075 1270828726 723249849#0 723249849#1 1272225923#0 1272225923#1 1272225923#2 1137128326 720361263 1269264064#0 1269264064#1 191937819#0 191937819#1 191937850#0 191937850#1 191937830#0 191937830#1"/>
    </vehicle>
    <vehicle type="car" id="5" depart="5.00">
        <route edges="-1215966886 330532340 191937850#0 191937850#1 1215970291 1215970290#0 1215970290#1 720361261 720361262 722556033 722556034#0 722556034#1 191937848#0 191937848#1 191937848#2 606920724#0 606920724#1 291440678 -32577544#1"/>
    </vehicle>
    <vehicle type="car" id="6" depart="6.00">
        <route edges="224494489#0 -224494489#0 -191937846#2 -191937846#1 -306704226#1 -306704226#0 191937837#4 191937837#5 191937837#6 191937837#7"/>
    </vehicle>
    <vehicle type="car" id="7" depart="7.00">
        <route edges="-32577544#5 -32577544#4 -32577544#3 -32577544#2 -32577544#1 -32577544#0 -722357075 1270828726 723249849#0 723249849#1 1272225923#0 1272225923#1 1272225923#2 720360982#2 722556033 722556034#0 722556034#1 191937848#0 191937848#1"/>
    </vehicle>
    <vehicle type="car" id="8" depart="8.00">
        <route edges="607291202 1269264065#1 566567148#0 566567148#1 1275903810 191937819#0 191937819#1 191937850#0 191937850#1 1215970291 1215970290#0 1215970290#1 720361261 1269264063 719482084#0 719482084#1 719482084#2 -191937837#8 -1149832778#2 -1149832778#1"/>
    </vehicle>
    <vehicle type="car" id="9" depart="9.00">
        <route edges="606920724#4 -606920724#4 -606920724#3 -606920724#2 -606920724#1 -606920724#0 1270828724 722357075 32577544#0 32577544#1"/>
    </vehicle>
    <vehicle type="car" id="10" depart="10.00">
        <route edges="1175493775#1 566567148#0 566567148#1 1275903810 191937819#0 191937819#1 191937850#0 191937850#1 1215970291 1215970290#0 1215970290#1 720361261 720361262 722556033 722556034#0 722556034#1 191937848#0 191937848#1 191937848#2 1270828724 722357075 32577544#0 32577544#1 32577544#2 32577544#3 291440669 -224494489#1"/>
    </vehicle>
    <vehicle type="car" id="11" depart="11.00">
        <route edges="722556033 1272225924#0 1272225923#2 720360982#2 720360978#0 720360978#1 -723594683 1213004136"/>
    </vehicle>
    <vehicle type="car" id="12" depart="12.00">
        <route edges="-191937837#5"/>
    </vehicle>
    <vehicle type="car" id="13" depart="13.00">
        <route edges="719482084#2 -191937837#8 -1149832778#2 -1149832778#1 -1149832778#0 720360982#0 720360982#1 1137128326 720361263 1269264064#0 1269264064#1 191937819#0 191937819#1 191937850#0 191937850#1"/>
    </vehicle>
    <vehicle type="car" id="14" depart="14.00">
        <route edges="606920724#4 -606920724#4 -606920724#3 -606920724#2 -606920724#1 -606920724#0 1270828724 722357075 191937846#0 -306704226#1 -306704226#0 -191937837#3 -347962231#1 -347962231#0 347962231#0 347962231#1"/>
    </vehicle>
    <vehicle type="car" id="15" depart="15.00">
        <route edges="191937837#5 191937837#6 191937837#7 -1149832778#2 -1149832778#1 -1149832778#0 720360982#0 720360982#1 720360982#2 722556033 722556034#0 722556034#1"/>
    </vehicle>
    <vehicle type="car" id="16" depart="16.00">
        <route edges="1215971651 191937850#0 191937850#1 1215970291 1215970290#0 1215970290#1 720361261 720361262 722556033 722556034#0 722556034#1 191937848#0 191937848#1 191937848#2 1270828724 722357075 191937846#0"/>
    </vehicle>
    <vehicle type="car" id="17" depart="17.00">
        <route edges="610137708 211840922#0 211840922#1"/>
    </vehicle>
    <vehicle type="car" id="18" depart="18.00">
        <route edges="720342747#1 723594685 720360985 722556035#0 722556035#1 722556034#0 722556034#1 191937848#0 191937848#1 191937848#2 1270828724 722357075 191937846#0 191937846#1 191937846#2 191937846#3 191937846#4 191937846#5"/>
    </vehicle>
    <vehicle type="car" id="19" depart="19.00">
        <route edges="32577544#3 32577544#4 -291440682 -606920724#3 -606920724#2 -606920724#1 -606920724#0 -1270828725 723249849#0 723249849#1 1272225923#0 1272225923#1 1272225923#2 1137128326 720361263 1269264064#0 1269264064#1 -1275903810 -566567148#1 -566567148#0 -1269264065#1"/>
    </vehicle>
    <vehicle type="car" id="20" depart="20.00">
        <route edges="-32582068 1419189312 1215971651 191937850#0 191937850#1 1215970291 1215970290#0 1215970290#1 720361261 720361262 722556033 722556034#0 722556034#1 191937848#0 191937848#1 191937848#2 606920724#0 606920724#1 606920724#2 606920724#3 606920724#4 -608573092"/>
    </vehicle>
    <vehicle type="car" id="21" depart="21.00">
        <route edges="-191937837#2 -191937837#1 -191937837#0 191937837#0 191937837#1 191937837#2 -347962231#1"/>
    </vehicle>
    <vehicle type="car" id="22" depart="22.00">
        <route edges="-191937837#7 -191937837#6 -191937837#5 -191937837#4 306704226#0 306704226#1 -191937846#0 -722357075 1270828726 1270828725 606920724#0 606920724#1 606920724#2 606920724#3 606920724#4 -606920724#4"/>
    </vehicle>
    <vehicle type="car" id="23" depart="23.00">
        <route edges="1215970291 1215970290#0 1215970290#1 720361261 720361262 722556033 722556034#0 722556034#1 191937848#0 191937848#1 191937848#2 606920724#0 606920724#1 606920724#2 606920724#3 291440682 -32577544#4 -32577544#3"/>
    </vehicle>
    <vehicle type="car" id="24" depart="24.00">
        <route edges="-606920724#0 -1270828725 723249849#0 723249849#1 1272225923#0 1272225923#1 1272225923#2 1137128326 720361263 1270139985 218227253#0 218227253#1 218227253#2 722058131"/>
    </vehicle>
    <vehicle type="car" id="25" depart="25.00">
        <route edges="224494489#0 -608573091 -32577544#0 -722357075 1270828726 723249849#0 723249849#1 1272225923#0 1272225923#1 1272225923#2 1137128326 720361263 1269264064#0 1269264064#1 191937819#0 191937819#1 191937850#0 191937850#1 191937830#0 191937830#1 408193287#0 211835011"/>
    </vehicle>
    <vehicle type="car" id="26" depart="26.00">
        <route edges="-291440678 -606920724#1 -606920724#0 1270828724 722357075 191937846#0 -306704226#1 -306704226#0 -191937837#3 -347962231#1 -347962231#0 347962231#0 347962231#1"/>
    </vehicle>
    <vehicle type="car" id="27" depart="27.00">
        <route edges="-291440669 -32577544#3 -32577544#2 -32577544#1 -32577544#0 -722357075 1270828726 723249849#0 723249849#1 1272225923#0 1272225923#1 1272225923#2 1137128326 720361263 1269264064#0 1269264064#1 1265471307"/>
    </vehicle>
    <vehicle type="car" id="28" depart="28.00">
        <route edges="723249849#1 1272225923#0 1272225923#1 1272225923#2 1137128326 720361263 1270139985 218227253#0 218227253#1 218227253#2"/>
    </vehicle>
    <vehicle type="car" id="29" depart="29.00">
        <route edges="191937846#0 -306704226#1 306704226#1"/>
    </vehicle>
    <vehicle type="car" id="30" depart="30.00">
        <route edges="719482084#1 719482084#2 -191937837#8 -1149832778#2 -1149832778#1 -1149832778#0 720360982#0 720360982#1 1137128326 720361263 1270139985 218227253#0 218227253#1 218227253#2 606240976"/>
    </vehicle>
    <vehicle type="car" id="31" depart="31.00">
        <route edges="-32582068 1419189312 1215971651 -330532340 1215966886 -1215966886"/>
    </vehicle>
    <vehicle type="car" id="32" depart="32.00">
        <route edges="1149832776 -1149832778#3 -1149832778#2 -1149832778#1 -1149832778#0 720360982#0 720360982#1 720360982#2 722556033 722556034#0 722556034#1 191937848#0 191937848#1 191937848#2 1270828724 722357075 32577544#0 32577544#1 -291440678 -606920724#1"/>
    </vehicle>
    <vehicle type="car" id="33" depart="33.00">
        <route edges="-32577544#3 -32577544#2 -32577544#1 -32577544#0 -722357075 1270828726 723249849#0 723249849#1 1272225923#0 1272225923#1 1272225923#2 720360982#2 720360978#0 720360978#1 -723594683 1213004136 720342747#0 720342747#1 723594685 720360985 722357076#0"/>
    </vehicle>
    <vehicle type="car" id="34" depart="34.00">
        <route edges="720360982#0 720360982#1 720360982#2 722556033 1272225924#0 1272225924#1 1272225924#2 720360986 1149832778#0"/>
    </vehicle>
    <vehicle type="car" id="35" depart="35.00">
        <route edges="224494489#1 -291440669 -32577544#3 -32577544#2 -32577544#1 -32577544#0 -722357075 1270828726 723249849#0 723249849#1 1272225923#0 1272225923#1 1272225923#2 1137128326 720361263 1269264064#0 1269264064#1"/>
    </vehicle>
    <vehicle type="car" id="36" depart="36.00">
        <route edges="-606920724#0 -1270828725 723249849#0 723249849#1 1272225923#0 1272225923#1 1272225923#2 1137128326 720361263 1269264064#0 1269264064#1 -1275903810 -566567148#1 -566567148#0"/>
    </vehicle>
    <vehicle type="car" id="37" depart="37.00">
        <route edges="191937846#1 191937846#2 224494489#0 -608573091 32577544#1 -291440678 -606920724#1 -606920724#0"/>
    </vehicle>
    <vehicle type="car" id="38" depart="38.00">
        <route edges="1269264064#1 191937819#0 191937819#1 191937850#0 191937850#1 191937830#0 191937830#1 408193287#0 408193287#1 -32582068"/>
    </vehicle>
    <vehicle type="car" id="39" depart="39.00">
        <route edges="802338945 330532340 191937850#0 191937850#1 1215970291 1215970290#0 1215970290#1 720361261 720361262 722556033 722556034#0 722556034#1 191937848#0 191937848#1 191937848#2 1270828724 722357075 191937846#0 191937846#1 191937846#2 191937846#3 191937846#4 191937846#5 191937837#0"/>
    </vehicle>
    <vehicle type="car" id="40" depart="40.00">
        <route edges="-191937837#5 -191937837#4 306704226#0 306704226#1 -191937846#0 -722357075 1270828726 723249849#0 723249849#1 1272225923#0 1272225923#1 1272225923#2 1137128326 720361263 1269264064#0 1269264064#1 -1275903810 -566567148#1 -566567148#0 -1269264065#1"/>
    </vehicle>
    <vehicle type="car" id="41" depart="41.00">
        <route edges="-191937837#8 -1149832778#2 -1149832778#1 -1149832778#0 720360982#0 720360982#1 1137128326 720361263 1270139985 218227253#0"/>
    </vehicle>
    <vehicle type="car" id="42" depart="42.00">
        <route edges="606920724#1 291440678 -32577544#1 -32577544#0 -722357075 1270828726 723249849#0 723249849#1 1272225923#0"/>
    </vehicle>
    <vehicle type="car" id="43" depart="43.00">
        <route edges="-1419189312 32582068 -408193287#1 -408193287#0 566577331 1215970290#0 1215970290#1 720361261 1269264063 720361263 1269264064#0 1269264064#1 1265471307"/>
    </vehicle>
    <vehicle type="car" id="44" depart="44.00">
        <route edges="802338945 330532340 191937850#0 191937850#1 1215970291 1215970290#0 1215970290#1 720361261 720361262 722556033 722556034#0 722556034#1 191937848#0 191937848#1 191937848#2 1270828724 722357075 191937846#0 -306704226#1 -306704226#0 191937837#4"/>
    </vehicle>
    <vehicle type="car" id="45" depart="45.00">
        <route edges="-1149832778#2 -1149832778#1 -1149832778#0 720360982#0 720360982#1 1137128326 720361263 1269264064#0 1269264064#1 191937819#0 191937819#1 -1215971651 -1419189312 32582068"/>
    </vehicle>
    <vehicle type="car" id="46" depart="46.00">
        <route edges="306704226#0 -306704226#0 191937837#4 191937837#5 191937837#6"/>
    </vehicle>
    <vehicle type="car" id="47" depart="47.00">
        <route edges="-606920724#0 -1270828725 723249849#0 723249849#1 1272225923#0 1272225923#1 1272225923#2 1137128326 720361263 1270139985 218227253#0 218227253#1 218227253#2"/>
    </vehicle>
    <vehicle type="car" id="48" depart="48.00">
        <route edges="-191937846#0 -722357075 1270828726 723249849#0 723249849#1 1272225923#0 1272225923#1 1272225923#2"/>
    </vehicle>
    <vehicle type="car" id="49" depart="49.00">
        <route edges="1272225924#1 1272225924#2 720360986 720360982#0 720360982#1 720360982#2 722556033 722556034#0 722556034#1 191937848#0 191937848#1 191937848#2 -1270828725 723249849#0 723249849#1 722555105#0"/>
    </vehicle>
    <vehicle type="car" id="50" depart="50.00">
        <route edges="720360982#0 720360982#1 720360982#2 722556033 722556034#0 722556034#1 191937848#0 191937848#1 191937848#2 1270828724 722357075 32577544#0 32577544#1 -291440678 -606920724#1"/>
    </vehicle>
    <vehicle type="car" id="51" depart="51.00">
        <route edges="191937819#1 191937850#0 191937850#1 1215970291 1215970290#0 1215970290#1 720361261 720361262 722556033 722556034#0 722556034#1 191937848#0 191937848#1 191937848#2 1270828724 722357075 191937846#0 -306704226#1 -306704225"/>
    </vehicle>
    <vehicle type="car" id="52" depart="52.00">
        <route edges="720360985 722556035#0 722556035#1 1272225924#0 1272225923#2 720360982#2 720360978#0 720360978#1 -723594683 1213004136 720342747#0 720342747#1"/>
    </vehicle>
    <vehicle type="car" id="53" depart="53.00">
        <route edges="-722357075 1270828726 723249849#0 723249849#1 1272225923#0 1272225923#1 1272225923#2 1137128326 720361263 1270139985 218227253#0 218227253#1 218227253#2"/>
    </vehicle>
    <vehicle type="car" id="54" depart="54.00">
        <route edges="211835011 1215971651 191937850#0 191937850#1 1215970291 1215970290#0 1215970290#1 720361261 720361262 722556033 722556034#0 722556034#1 191937848#0 191937848#1 191937848#2 1270828724 722357075 32577544#0 608573091 -224494489#0"/>
    </vehicle>
    <vehicle type="car" id="55" depart="55.00">
        <route edges="566567148#1 1275903810 191937819#0 191937819#1 191937850#0 191937850#1 1215970291 1215970290#0 1215970290#1 720361261 720361262 722556033 722556034#0 722556034#1 191937848#0 191937848#1 191937848#2 1270828724 722357075 191937846#0 -306704226#1 -306704226#0 191937837#4 191937837#5 191937837#6"/>
    </vehicle>
    <vehicle type="car" id="56" depart="56.00">
        <route edges="566594770 211840922#0 211840922#1 211840922#2 1270139985 720361261 720361262 722556033 722556034#0 722556034#1 191937848#0 191937848#1 191937848#2 1270828724 722357075 191937846#0 -306704226#1 -306704226#0 191937837#4"/>
    </vehicle>
    <vehicle type="car" id="57" depart="57.00">
        <route edges="-1149832778#0 720360982#0 720360982#1 720360982#2 722556033 1272225924#0 1272225924#1 1272225924#2 720360986 1149832778#0 1149832778#1 1149832778#2"/>
    </vehicle>
    <vehicle type="car" id="58" depart="58.00">
        <route edges="-1175493775#1 607291202 1269264065#1 566567148#0 566567148#1 1275903810 191937819#0 191937819#1 191937850#0 191937850#1 1215970291 1215970290#0 1215970290#1 720361261 1269264063 720361263"/>
    </vehicle>
    <vehicle type="car" id="59" depart="59.00">
        <route edges="1137128326 720361263 1269264064#0 1269264064#1 191937819#0 191937819#1 -1215971651 -1419189312 -1419189306#1 -1419189306#0"/>
    </vehicle>
    <vehicle type="car" id="60" depart="60.00">
        <route edges="720360982#0 720360982#1 720360982#2 720360978#0 720360978#1 -723594683 1213004136 720342747#0 720342747#1 723594685 720360985 722357076#0"/>
    </vehicle>
    <vehicle type="car" id="61" depart="61.00">
        <route edges="-191937837#3 191937837#3 191937837#4 191937837#5 191937837#6 191937837#7 191937837#8 719462303 1435980096"/>
    </vehicle>
    <vehicle type="car" id="62" depart="62.00">
        <route edges="-191937837#0 -191937846#5 -191937846#4 -191937846#3 -191937846#2 -191937846#1 -191937846#0 -722357075 1270828726 723249849#0 723249849#1 1272225923#0 1272225923#1 1272225923#2 1137128326 720361263 1269264064#0 1269264064#1 -1275903810 -566567148#1 -566567148#0 566567148#0"/>
    </vehicle>
    <vehicle type="car" id="63" depart="63.00">
        <route edges="566567150 1275903810 191937819#0 191937819#1 191937850#0 191937850#1 1215970291 1215970290#0 1215970290#1 720361261 720361262 722556033 722556034#0 722556034#1 191937848#0 191937848#1 191937848#2 1270828724 722357075 191937846#0 191937846#1 191937846#2 -191937846#2"/>
    </vehicle>
    <vehicle type="car" id="64" depart="64.00">
        <route edges="1419189306#0 1419189306#1 1419189312 1215971651 191937850#0 191937850#1 1215970291 1215970290#0 1215970290#1 720361261 720361262 722556033 1272225924#0 1272225924#1 1272225924#2 720360986 1149832778#0 1149832778#1 1149832778#2 191937837#8"/>
    </vehicle>
    <vehicle type="car" id="65" depart="65.00">
        <route edges="-606920724#0 -1270828725 723249849#0 723249849#1 1272225923#0 1272225923#1 1272225923#2 720360982#2 720360978#0"/>
    </vehicle>
    <vehicle type="car" id="66" depart="66.00">
        <route edges="1270828725 606920724#0 606920724#1 606920724#2 606920724#3 291440682 -32577544#4"/>
    </vehicle>
    <vehicle type="car" id="67" depart="67.00">
        <route edges="191937837#5 191937837#6 191937837#7 -191937837#7 -191937837#6 -191937837#5 -191937837#4 -191937837#3 -347962231#1 -347962231#0 347962231#0 347962231#1"/>
    </vehicle>
    <vehicle type="car" id="68" depart="68.00">
        <route edges="-32577544#1 -32577544#0 -722357075 1270828726 723249849#0 723249849#1 1272225923#0 1272225923#1 1272225924#1 1272225924#2 720360986 1149832778#0"/>
    </vehicle>
    <vehicle type="car" id="69" depart="69.00">
        <route edges="723594685 720360985 722556035#0 722556035#1 722556034#0 722556034#1 191937848#0 191937848#1 191937848#2 1270828724 722357075 191937846#0 191937846#1 191937846#2 224494489#0 224494489#1"/>
    </vehicle>
    <vehicle type="car" id="70" depart="70.00">
        <route edges="1272225923#1 1272225923#2 720360982#2 722556033 722556034#0 722556034#1 191937848#0 191937848#1 191937848#2 1270828724 722357075 191937846#0 191937846#1 191937846#2 191937846#3 191937846#4 191937846#5 191937837#0 191937837#1 191937837#2"/>
    </vehicle>
    <vehicle type="car" id="71" depart="71.00">
        <route edges="-191937846#2 -191937846#1 -191937846#0 -722357075 1270828726 723249849#0 723249849#1 1272225923#0 1272225923#1 1272225923#2 1137128326 720361263 1269264064#0 1269264064#1 191937819#0 191937819#1 -330532340"/>
    </vehicle>
    <vehicle type="car" id="72" depart="72.00">
        <route edges="1175493775#0 1175493775#1 566567148#0 566567148#1 1275903810 191937819#0 191937819#1 191937850#0 191937850#1 1215970291 1215970290#0 1215970290#1 720361261 720361262 722556033 722556034#0 722556034#1 191937848#0"/>
    </vehicle>
    <vehicle type="car" id="73" depart="73.00">
        <route edges="-330532340"/>
    </vehicle>
    <vehicle type="car" id="74" depart="74.00">
        <route edges="-191937837#0 -191937846#5 -191937846#4 -191937846#3 -191937846#2 -191937846#1 -191937846#0 -722357075 1270828726 723249849#0 723249849#1 1272225923#0 1272225923#1 1272225923#2 1137128326 720361263 1270139985 218227253#0"/>
    </vehicle>
    <vehicle type="car" id="75" depart="75.00">
        <route edges="720342747#0 720342747#1 723594685 720360985 722556035#0 722556035#1 1272225924#0 1272225923#2 1137128326 720361263 1269264064#0 1269264064#1 191937819#0 191937819#1 -1215971651 -1419189312"/>
    </vehicle>
    <vehicle type="car" id="76" depart="76.00">
        <route edges="-347962231#1 -347962231#0 347962231#0 347962231#1 191937837#3 306704226#0 306704226#1 -191937846#0 -722357075 1270828726 1270828725 606920724#0 606920724#1 606920724#2 291440679"/>
    </vehicle>
    <vehicle type="car" id="77" depart="77.00">
        <route edges="-32577544#3 -32577544#2 -32577544#1 -32577544#0 191937846#0 191937846#1 191937846#2 191937846#3 -191937846#3"/>
    </vehicle>
    <vehicle type="car" id="78" depart="78.00">
        <route edges="722357075 191937846#0 191937846#1 191937846#2 191937846#3 191937846#4"/>
    </vehicle>
    <vehicle type="car" id="79" depart="79.00">
        <route edges="606920724#4 -606920724#4 -606920724#3 -606920724#2 -606920724#1 -606920724#0 1270828724 722357075 191937846#0 -306704226#1"/>
    </vehicle>
    <vehicle type="car" id="80" depart="80.00">
        <route edges="-191937837#6 -191937837#5 -191937837#4 306704226#0 306704226#1 -191937846#0 -722357075 1270828726 723249849#0 723249849#1 1272225923#0 1272225923#1 1272225923#2"/>
    </vehicle>
    <vehicle type="car" id="81" depart="81.00">
        <route edges="1270828725 -1270828725 723249849#0 723249849#1 1272225923#0 1272225923#1 1272225923#2 1137128326 720361263 1269264064#0 1269264064#1 191937819#0 191937819#1 -1215971651 -1419189312 -1419189306#1 1419189306#1"/>
    </vehicle>
    <vehicle type="car" id="82" depart="82.00">
        <route edges="347962231#1 191937837#3 306704226#0 306704226#1 -191937846#0 -722357075 1270828726 1270828725 606920724#0 606920724#1 606920724#2 606920724#3 291440682"/>
    </vehicle>
    <vehicle type="car" id="83" depart="83.00">
        <route edges="723249849#0 723249849#1 1272225923#0 1272225923#1 1272225924#1 1272225924#2 720360986 1149832778#0 1149832778#1 1149832778#2 -191937837#7 -191937837#6 -191937837#5"/>
    </vehicle>
    <vehicle type="car" id="84" depart="84.00">
        <route edges="1269264065#0 1269264065#1 566567148#0 566567148#1 1275903810 191937819#0 191937819#1 191937850#0 191937850#1 1215970291 1215970290#0 1215970290#1 720361261 720361262 720360978#0 720360978#1 -723594683 1213004136"/>
    </vehicle>
    <vehicle type="car" id="85" depart="85.00">
        <route edges="720342747#1 723594685 720360985 722556035#0 722556035#1 1272225924#0 1272225923#2 1137128326 720361263 1269264064#0 1269264064#1 -1275903810 -566567148#1 -566567148#0"/>
    </vehicle>
    <vehicle type="car" id="86" depart="86.00">
        <route edges="-306704226#0 306704226#0 306704226#1 -191937846#0 -722357075 1270828726 723249849#0 723249849#1 1272225923#0 1272225923#1 1272225924#1 1272225924#2"/>
    </vehicle>
    <vehicle type="car" id="87" depart="87.00">
        <route edges="1270828725 606920724#0 606920724#1 606920724#2 606920724#3 606920724#4 -606920724#4"/>
    </vehicle>
    <vehicle type="car" id="88" depart="88.00">
        <route edges="-566567148#0 566567148#0 566567148#1 1275903810 191937819#0 191937819#1 191937850#0 191937850#1 1215970291 1215970290#0 1215970290#1 720361261"/>
    </vehicle>
    <vehicle type="car" id="89" depart="89.00">
        <route edges="1272225923#2 720360982#2 720360978#0 720360978#1 -723594683 1213004136 720342747#0"/>
    </vehicle>
    <vehicle type="car" id="90" depart="90.00">
        <route edges="191937837#8 -191937837#8 -1149832778#2 -1149832778#1 -1149832778#0 720360982#0 720360982#1 720360982#2 722556033 722556034#0 722556034#1 191937848#0 191937848#1 191937848#2 -1270828725"/>
    </vehicle>
    <vehicle type="car" id="91" depart="91.00">
        <route edges="802338945 330532340 191937850#0 191937850#1 1215970291 1215970290#0 1215970290#1 720361261 1269264063 719482084#0 719482084#1 719482084#2 719462303"/>
    </vehicle>
    <vehicle type="car" id="92" depart="92.00">
        <route edges="722556034#1 191937848#0 191937848#1 191937848#2 -1270828725 723249849#0 723249849#1 1272225923#0 1272225923#1 1272225923#2 1137128326 720361263 1270139985 720361261 720361262"/>
    </vehicle>
    <vehicle type="car" id="93" depart="93.00">
        <route edges="719482084#2 -191937837#8 -1149832778#2 -1149832778#1 -1149832778#0 720360982#0 720360982#1 720360982#2 722556033 722556034#0 722556034#1 191937848#0 191937848#1 191937848#2 1270828724 722357075 32577544#0 32577544#1 -291440678"/>
    </vehicle>
    <vehicle type="car" id="94" depart="94.00">
        <route edges="1419189312 1215971651 191937850#0 191937850#1 1215970291 1215970290#0 1215970290#1 720361261 720361262 722556033 722556034#0 722556034#1 191937848#0 191937848#1 191937848#2 606920724#0 606920724#1 606920724#2 606920724#3 291440682 -32577544#4"/>
    </vehicle>
    <vehicle type="car" id="95" depart="95.00">
        <route edges="1269264064#1 191937819#0 191937819#1 -1215971651 -1419189312 -1419189306#1 -1419189306#0"/>
    </vehicle>
    <vehicle type="car" id="96" depart="96.00">
        <route edges="1215971651 191937850#0 191937850#1 1215970291 1215970290#0 1215970290#1 720361261 720361262 720360978#0 720360978#1 -723594683 1213004136 720342747#0 720342747#1 723594685 720360985 722556035#0 722556035#1"/>
    </vehicle>
    <vehicle type="car" id="97" depart="97.00">
        <route edges="-606920724#0 -1270828725 723249849#0 723249849#1 1272225923#0 1272225923#1 1272225923#2 1137128326 720361263 1269264064#0 1269264064#1 191937819#0 191937819#1 191937850#0 191937850#1 191937830#0 191937830#1 606240979"/>
    </vehicle>
    <vehicle type="car" id="98" depart="98.00">
        <route edges="1272225924#2 720360986 720360982#0 720360982#1 720360982#2 722556033 722556034#0 722556034#1 191937848#0 191937848#1 191937848#2 -1270828725 723249849#0 723249849#1 1272225923#0"/>
    </vehicle>
    <vehicle type="car" id="99" depart="99.00">
        <route edges="722556033 1272225924#0 1272225923#2 720360982#2 720360978#0 720360978#1 -723594683 1213004136 720342747#0 720342747#1 723594685"/>
    </vehicle>
    <vehicle type="car" id="100" depart="100.00">
        <route edges="191937846#0 -191937846#0 -722357075 1270828726 723249849#0 723249849#1 1272225923#0 1272225923#1 1272225923#2 1137128326 720361263 1269264064#0 1269264064#1 191937819#0 191937819#1 -1215971651 -1419189312 32582068"/>
    </vehicle>
    <vehicle type="car" id="101" depart="101.00">
        <route edges="-224494489#1 -224494489#0 -191937846#2 -191937846#1 -191937846#0 -722357075 1270828726 723249849#0 723249849#1 1272225923#0 1272225923#1 1272225923#2 720360982#2 720360978#0 720360978#1 -723594683"/>
    </vehicle>
    <vehicle type="car" id="102" depart="102.00">
        <route edges="722556034#1 191937848#0 191937848#1 191937848#2 1270828724 722357075 191937846#0 191937846#1 191937846#2 191937846#3 191937846#4 191937846#5 191937846#6"/>
    </vehicle>
    <vehicle type="car" id="103" depart="103.00">
        <route edges="191937837#6 191937837#7 -1149832778#2 -1149832778#1 -1149832778#0 720360982#0 720360982#1 1137128326 720361263 1269264064#0 1269264064#1 191937819#0 191937819#1 191937850#0 191937850#1 191937830#0 191937830#1 408193287#0"/>
    </vehicle>
    <vehicle type="car" id="104" depart="104.00">
        <route edges="-1419189306#1 1419189306#1 1419189312 1215971651 191937850#0 191937850#1 1215970291 1215970290#0 1215970290#1 720361261 720361262 722556033 722556034#0 722556034#1 191937848#0"/>
    </vehicle>
    <vehicle type="car" id="105" depart="105.00">
        <route edges="191937830#0 191937830#1 408193287#0 -408193287#0 566577331 1215970290#0 1215970290#1 720361261 1269264063 719482084#0 719482084#1 719482084#2"/>
    </vehicle>
    <vehicle type="car" id="106" depart="106.00">
        <route edges="-224494489#1 -224494489#0 -191937846#2 -191937846#1 -191937846#0 -722357075 1270828726 723249849#0 723249849#1 722555105#0 722555105#1"/>
    </vehicle>
    <vehicle type="car" id="107" depart="107.00">
        <route edges="-191937837#2 -191937837#1 -191937837#0 -191937846#5 -191937846#4 -191937846#3 -191937846#2 -191937846#1 -306704226#1 -306704226#0"/>
    </vehicle>
    <vehicle type="car" id="108" depart="108.00">
        <route edges="191937848#2 1270828724 722357075 191937846#0 191937846#1 191937846#2 191937846#3 306704225"/>
    </vehicle>
    <vehicle type="car" id="109" depart="109.00">
        <route edges="-347962231#1 -347962231#0 347962231#0 347962231#1 -191937837#2 -191937837#1 -191937837#0 -191937846#5 -191937846#4 -191937846#3 -191937846#2 -191937846#1"/>
    </vehicle>
    <vehicle type="car" id="110" depart="110.00">
        <route edges="720360983#0 720360983#1 720360983#2 719494700 1269264063 720361263 1269264064#0 1269264064#1 -1275903810 -566567148#1 -566567148#0"/>