<?xml version="1.0" encoding="UTF-8"?>

<!-- generated on 2025-11-17T12:56:15.734188+07:00 by Eclipse SUMO sumo 1.25.0
-->

<sumoConfiguration xmlns:xsi="http://www.w3.org/2001/XMLSchema-instance" xsi:noNamespaceSchemaLocation="http://sumo.dlr.de/xsd/sumoConfiguration.xsd">

    <input>
        <net-file value="quangtrung.net.xml"/>
        <route-files value="routes.rou.xml"/>
        <additional-files value="quangtrungcar.add.xml"/>
    </input>

</sumoConfiguration>
