<?xml version="1.0" encoding="UTF-8"?>

<!-- generated on 2025-11-17T14:41:43.113853+07:00 by Eclipse SUMO netconvert 1.25.0
<netconvertConfiguration xmlns:xsi="http://www.w3.org/2001/XMLSchema-instance" xsi:noNamespaceSchemaLocation="http://sumo.dlr.de/xsd/netconvertConfiguration.xsd">

    <input>
        <osm-files value="Nga6NguyenThaiSon.osm"/>
    </input>

    <output>
        <output-file value="Nga6NguyenThaiSon.net.xml"/>
    </output>

    <projection>
        <proj.utm value="true"/>
    </projection>

    <processing>
        <geometry.remove value="true"/>
    </processing>

    <report>
        <verbose value="true"/>
    </report>

</netconvertConfiguration>
-->

<net version="1.20" junctionCornerDetail="5" limitTurnSpeed="5.50" xmlns:xsi="http://www.w3.org/2001/XMLSchema-instance" xsi:noNamespaceSchemaLocation="http://sumo.dlr.de/xsd/net_file.xsd">

    <location netOffset="-682808.21,-1195526.06" convBoundary="0.00,0.00,1512.61,1590.74" origBoundary="106.672138,10.810447,106.685989,10.824836" projParameter="+proj=utm +zone=48 +ellps=WGS84 +datum=WGS84 +units=m +no_defs"/>

    <type id="highway.footway" priority="1" numLanes="1" speed="2.78" allow="pedestrian" oneway="1" width="2.00"/>
    <type id="highway.path" priority="1" numLanes="1" speed="5.56" allow="pedestrian bicycle" oneway="0" width="2.00"/>
    <type id="highway.primary" priority="12" numLanes="2" speed="27.78" disallow="tram rail_urban rail rail_electric rail_fast ship container cable_car subway aircraft wheelchair scooter drone" oneway="0"/>
    <type id="highway.primary_link" priority="7" numLanes="1" speed="22.22" disallow="tram rail_urban rail rail_electric rail_fast ship container cable_car subway aircraft wheelchair scooter drone" oneway="0"/>
    <type id="highway.residential" priority="3" numLanes="1" speed="13.89" disallow="tram rail_urban rail rail_electric rail_fast ship container cable_car subway aircraft wheelchair scooter drone" oneway="0"/>
    <type id="highway.service" priority="1" numLanes="1" speed="5.56" allow="pedestrian delivery bicycle" oneway="0"/>
    <type id="highway.trunk" priority="13" numLanes="2" speed="27.78" disallow="pedestrian bicycle tram rail_urban rail rail_electric rail_fast ship container cable_car subway aircraft wheelchair scooter drone" oneway="0"/>

    <edge id=":10213188459_0" function="internal">
        <lane id=":10213188459_0_0" index="0" disallow="tram rail_urban rail rail_electric rail_fast ship container cable_car subway aircraft wheelchair scooter drone" speed="7.33" length="11.72" shape="733.88,647.34 731.44,646.79 729.69,645.14 728.63,642.39 728.28,638.54"/>
    </edge>
    <edge id=":10213188459_1" function="internal">
        <lane id=":10213188459_1_0" index="0" disallow="tram rail_urban rail rail_electric rail_fast ship container cable_car subway aircraft wheelchair scooter drone" speed="3.65" length="4.67" shape="733.88,647.34 732.68,646.54 732.28,645.74 732.68,644.94 733.88,644.14"/>
    </edge>
    <edge id=":10213188459_2" function="internal">
        <lane id=":10213188459_2_0" index="0" disallow="tram rail_urban rail rail_electric rail_fast ship container cable_car subway aircraft wheelchair scooter drone" speed="24.16" length="9.17" shape="724.52,647.06 725.21,644.64 725.34,642.90 725.19,641.11 725.08,638.55"/>
        <lane id=":10213188459_2_1" index="1" disallow="tram rail_urban rail rail_electric rail_fast ship container cable_car subway aircraft wheelchair scooter drone" speed="25.64" length="9.17" shape="727.54,648.13 728.33,645.40 728.51,643.44 728.39,641.43 728.28,638.54"/>
    </edge>
    <edge id=":10213188459_4" function="internal">
        <lane id=":10213188459_4_0" index="0" disallow="tram rail_urban rail rail_electric rail_fast ship container cable_car subway aircraft wheelchair scooter drone" speed="7.08" length="8.04" shape="727.54,648.13 728.47,646.39 729.83,645.14 731.64,644.39 733.88,644.14"/>
    </edge>
    <edge id=":10883089729_0" function="internal">
        <lane id=":10883089729_0_0" index="0" allow="pedestrian delivery bicycle" speed="3.65" length="4.67" shape="872.89,530.67 873.54,531.96 873.49,532.85 872.75,533.35 871.31,533.45"/>
    </edge>
    <edge id=":1097710266_0" function="internal">
        <lane id=":1097710266_0_0" index="0" allow="pedestrian delivery bicycle" speed="3.65" length="4.67" shape="1027.25,128.52 1028.68,128.71 1029.39,129.26 1029.38,130.15 1028.65,131.40"/>
    </edge>
    <edge id=":1097710268_0" function="internal">
        <lane id=":1097710268_0_0" index="0" disallow="tram rail_urban rail rail_electric rail_fast ship container cable_car subway aircraft wheelchair scooter drone" speed="3.65" length="4.67" shape="1054.82,316.95 1056.26,316.95 1057.03,317.40 1057.14,318.28 1056.58,319.61"/>
    </edge>
    <edge id=":11434275748_0" function="internal">
        <lane id=":11434275748_0_0" index="0" disallow="tram rail_urban rail rail_electric rail_fast ship container cable_car subway aircraft wheelchair scooter drone" speed="13.89" length="5.74" shape="423.41,415.68 429.10,416.22"/>
        <lane id=":11434275748_0_1" index="1" disallow="tram rail_urban rail rail_electric rail_fast ship container cable_car subway aircraft wheelchair scooter drone" speed="13.89" length="5.74" shape="423.09,418.86 428.81,419.41"/>
        <lane id=":11434275748_0_2" index="2" disallow="tram rail_urban rail rail_electric rail_fast ship container cable_car subway aircraft wheelchair scooter drone" speed="13.89" length="5.74" shape="422.78,422.05 428.52,422.60"/>
    </edge>
    <edge id=":11774805663_0" function="internal">
        <lane id=":11774805663_0_0" index="0" disallow="tram rail_urban rail rail_electric rail_fast ship container cable_car subway aircraft wheelchair scooter drone" speed="27.78" length="11.35" shape="738.73,458.75 736.78,456.24 735.30,454.23 733.89,452.17 732.15,449.51"/>
    </edge>
    <edge id=":11774805663_1" function="internal">
        <lane id=":11774805663_1_0" index="0" disallow="tram rail_urban rail rail_electric rail_fast ship container cable_car subway aircraft wheelchair scooter drone" speed="6.54" length="9.15" shape="738.73,458.75 737.50,456.60 737.27,454.56 738.04,452.62 739.80,450.80"/>
    </edge>
    <edge id=":11774805664_0" function="internal">
        <lane id=":11774805664_0_0" index="0" disallow="tram rail_urban rail rail_electric rail_fast ship container cable_car subway aircraft wheelchair scooter drone" speed="27.78" length="6.69" shape="751.72,441.14 755.11,446.80"/>
        <lane id=":11774805664_0_1" index="1" disallow="tram rail_urban rail rail_electric rail_fast ship container cable_car subway aircraft wheelchair scooter drone" speed="27.78" length="6.69" shape="748.97,442.77 752.46,448.59"/>
    </edge>
    <edge id=":11774805664_2" function="internal">
        <lane id=":11774805664_2_0" index="0" disallow="tram rail_urban rail rail_electric rail_fast ship container cable_car subway aircraft wheelchair scooter drone" speed="6.92" length="6.50" shape="746.52,446.81 748.55,446.74 750.22,447.02 751.52,447.63 752.46,448.59"/>
    </edge>
    <edge id=":11777727352_0" function="internal">
        <lane id=":11777727352_0_0" index="0" disallow="tram rail_urban rail rail_electric rail_fast ship container cable_car subway aircraft wheelchair scooter drone" speed="27.78" length="0.30" shape="658.10,330.96 658.29,331.19"/>
        <lane id=":11777727352_0_1" index="1" disallow="tram rail_urban rail rail_electric rail_fast ship container cable_car subway aircraft wheelchair scooter drone" speed="27.78" length="0.30" shape="655.65,333.01 655.84,333.24"/>
    </edge>
    <edge id=":12342575819_0" function="internal">
        <lane id=":12342575819_0_0" index="0" allow="pedestrian delivery bicycle" speed="3.65" length="4.67" shape="771.81,329.32 770.98,328.14 770.90,327.25 771.56,326.65 772.97,326.34"/>
    </edge>
    <edge id=":12432225714_0" function="internal">
        <lane id=":12432225714_0_0" index="0" disallow="tram rail_urban rail rail_electric rail_fast ship container cable_car subway aircraft wheelchair scooter drone" speed="3.65" length="4.67" shape="784.15,644.17 785.35,644.97 785.75,645.77 785.35,646.57 784.15,647.37"/>
    </edge>
    <edge id=":13040611358_0" function="internal">
        <lane id=":13040611358_0_0" index="0" disallow="tram rail_urban rail rail_electric rail_fast ship container cable_car subway aircraft wheelchair scooter drone" speed="5.88" length="5.49" shape="725.84,439.72 725.20,438.69 724.26,437.26 723.23,436.04 722.35,435.63"/>
    </edge>
    <edge id=":13040611358_1" function="internal">
        <lane id=":13040611358_1_0" index="0" disallow="tram rail_urban rail rail_electric rail_fast ship container cable_car subway aircraft wheelchair scooter drone" speed="27.78" length="5.85" shape="727.96,433.97 726.36,434.64 725.22,434.97 724.05,435.22 722.35,435.63"/>
        <lane id=":13040611358_1_1" index="1" disallow="tram rail_urban rail rail_electric rail_fast ship container cable_car subway aircraft wheelchair scooter drone" speed="27.78" length="5.85" shape="727.10,430.85 725.50,431.52 724.37,431.86 723.20,432.12 721.51,432.54"/>
    </edge>
    <edge id=":13071950505_0" function="internal">
        <lane id=":13071950505_0_0" index="0" disallow="tram rail_urban rail rail_electric rail_fast ship container cable_car subway aircraft wheelchair scooter drone" speed="5.30" length="6.58" shape="672.39,359.25 674.20,361.11 675.68,362.18 676.84,362.46 677.66,361.96"/>
        <lane id=":13071950505_0_1" index="1" disallow="tram rail_urban rail rail_electric rail_fast ship container cable_car subway aircraft wheelchair scooter drone" speed="7.01" length="12.41" shape="669.98,361.37 673.09,364.33 675.84,365.73 678.22,365.57 680.24,363.85"/>
    </edge>
    <edge id=":13071950505_2" function="internal">
        <lane id=":13071950505_2_0" index="0" disallow="tram rail_urban rail rail_electric rail_fast ship container cable_car subway aircraft wheelchair scooter drone" speed="27.78" length="10.78" shape="671.91,371.02 673.24,368.12 674.38,366.25 675.71,364.50 677.66,361.96"/>
        <lane id=":13071950505_2_1" index="1" disallow="tram rail_urban rail rail_electric rail_fast ship container cable_car subway aircraft wheelchair scooter drone" speed="27.78" length="10.78" shape="674.56,372.97 675.88,370.06 676.99,368.18 678.30,366.41 680.24,363.85"/>
    </edge>
    <edge id=":1392022024_0" function="internal">
        <lane id=":1392022024_0_0" index="0" disallow="tram rail_urban rail rail_electric rail_fast ship container cable_car subway aircraft wheelchair scooter drone" speed="6.64" length="9.22" shape="708.06,496.73 707.67,494.30 706.56,492.54 704.74,491.47 702.20,491.08"/>
    </edge>
    <edge id=":1392022024_1" function="internal">
        <lane id=":1392022024_1_0" index="0" disallow="tram rail_urban rail rail_electric rail_fast ship container cable_car subway aircraft wheelchair scooter drone" speed="27.78" length="14.48" shape="708.06,496.73 707.76,482.31"/>
        <lane id=":1392022024_1_1" index="1" disallow="tram rail_urban rail rail_electric rail_fast ship container cable_car subway aircraft wheelchair scooter drone" speed="27.78" length="14.48" shape="711.26,496.69 710.96,482.22"/>
        <lane id=":1392022024_1_2" index="2" disallow="tram rail_urban rail rail_electric rail_fast ship container cable_car subway aircraft wheelchair scooter drone" speed="27.78" length="14.48" shape="714.46,496.65 714.16,482.13"/>
    </edge>
    <edge id=":1392022024_4" function="internal">
        <lane id=":1392022024_4_0" index="0" disallow="tram rail_urban rail rail_electric rail_fast ship container cable_car subway aircraft wheelchair scooter drone" speed="6.41" length="9.04" shape="702.25,487.88 704.72,487.57 706.47,486.54 707.48,484.78 707.76,482.31"/>
    </edge>
    <edge id=":1392022024_5" function="internal">
        <lane id=":1392022024_5_0" index="0" disallow="tram rail_urban rail rail_electric rail_fast ship container cable_car subway aircraft wheelchair scooter drone" speed="3.65" length="4.67" shape="702.25,487.88 703.44,488.70 703.82,489.51 703.41,490.30 702.20,491.08"/>
    </edge>
    <edge id=":1392022025_0" function="internal">
        <lane id=":1392022025_0_0" index="0" disallow="tram rail_urban rail rail_electric rail_fast ship container cable_car subway aircraft wheelchair scooter drone" speed="13.32" length="11.99" shape="664.83,502.81 663.10,505.55 662.27,508.09 662.00,510.83 661.95,514.15"/>
    </edge>
    <edge id=":1392022025_1" function="internal">
        <lane id=":1392022025_1_0" index="0" disallow="tram rail_urban rail rail_electric rail_fast ship container cable_car subway aircraft wheelchair scooter drone" speed="13.89" length="13.97" shape="664.83,502.81 662.36,505.35 659.54,507.19 656.39,508.55 652.92,509.63"/>
    </edge>
    <edge id=":1392022025_2" function="internal">
        <lane id=":1392022025_2_0" index="0" disallow="tram rail_urban rail rail_electric rail_fast ship container cable_car subway aircraft wheelchair scooter drone" speed="3.65" length="1.44" shape="664.83,502.81 663.47,503.27"/>
    </edge>
    <edge id=":1392022025_9" function="internal">
        <lane id=":1392022025_9_0" index="0" disallow="tram rail_urban rail rail_electric rail_fast ship container cable_car subway aircraft wheelchair scooter drone" speed="3.65" length="3.23" shape="663.47,503.27 662.59,503.10 662.20,502.29 662.30,500.85"/>
    </edge>
    <edge id=":1392022025_3" function="internal">
        <lane id=":1392022025_3_0" index="0" disallow="tram rail_urban rail rail_electric rail_fast ship container cable_car subway aircraft wheelchair scooter drone" speed="13.40" length="12.00" shape="652.06,506.55 655.26,505.64 657.84,504.68 660.09,503.22 662.30,500.85"/>
    </edge>
    <edge id=":1392022025_4" function="internal">
        <lane id=":1392022025_4_0" index="0" disallow="tram rail_urban rail rail_electric rail_fast ship container cable_car subway aircraft wheelchair scooter drone" speed="7.58" length="4.00" shape="652.06,506.55 656.02,506.02"/>
    </edge>
    <edge id=":1392022025_5" function="internal">
        <lane id=":1392022025_5_0" index="0" disallow="tram rail_urban rail rail_electric rail_fast ship container cable_car subway aircraft wheelchair scooter drone" speed="3.65" length="1.44" shape="652.06,506.55 653.43,506.99"/>
    </edge>
    <edge id=":1392022025_10" function="internal">
        <lane id=":1392022025_10_0" index="0" disallow="tram rail_urban rail rail_electric rail_fast ship container cable_car subway aircraft wheelchair scooter drone" speed="7.58" length="11.43" shape="656.02,506.02 656.44,505.96 659.55,507.03 661.39,509.76 661.95,514.15"/>
    </edge>
    <edge id=":1392022025_11" function="internal">
        <lane id=":1392022025_11_0" index="0" disallow="tram rail_urban rail rail_electric rail_fast ship container cable_car subway aircraft wheelchair scooter drone" speed="3.65" length="3.23" shape="653.43,506.99 654.03,507.65 653.86,508.53 652.92,509.63"/>
    </edge>
    <edge id=":1392022025_6" function="internal">
        <lane id=":1392022025_6_0" index="0" disallow="tram rail_urban rail rail_electric rail_fast ship container cable_car subway aircraft wheelchair scooter drone" speed="5.97" length="9.09" shape="658.75,514.11 658.42,511.52 657.34,509.91 655.51,509.28 652.92,509.63"/>
    </edge>
    <edge id=":1392022025_7" function="internal">
        <lane id=":1392022025_7_0" index="0" disallow="tram rail_urban rail rail_electric rail_fast ship container cable_car subway aircraft wheelchair scooter drone" speed="13.89" length="13.98" shape="658.75,514.11 658.90,510.48 659.41,507.09 660.47,503.89 662.30,500.85"/>
    </edge>
    <edge id=":1392022025_8" function="internal">
        <lane id=":1392022025_8_0" index="0" disallow="tram rail_urban rail rail_electric rail_fast ship container cable_car subway aircraft wheelchair scooter drone" speed="3.65" length="4.67" shape="658.75,514.11 659.57,512.92 660.37,512.53 661.17,512.94 661.95,514.15"/>
    </edge>
    <edge id=":1392022036_0" function="internal">
        <lane id=":1392022036_0_0" index="0" disallow="tram rail_urban rail rail_electric rail_fast ship container cable_car subway aircraft wheelchair scooter drone" speed="6.66" length="9.22" shape="709.42,600.52 709.01,598.09 707.90,596.34 706.08,595.26 703.55,594.87"/>
    </edge>
    <edge id=":1392022036_1" function="internal">
        <lane id=":1392022036_1_0" index="0" disallow="tram rail_urban rail rail_electric rail_fast ship container cable_car subway aircraft wheelchair scooter drone" speed="27.78" length="14.38" shape="709.42,600.52 709.20,586.13"/>
        <lane id=":1392022036_1_1" index="1" disallow="tram rail_urban rail rail_electric rail_fast ship container cable_car subway aircraft wheelchair scooter drone" speed="27.78" length="14.38" shape="712.62,600.46 712.40,586.09"/>
        <lane id=":1392022036_1_2" index="2" disallow="tram rail_urban rail rail_electric rail_fast ship container cable_car subway aircraft wheelchair scooter drone" speed="27.78" length="14.38" shape="715.82,600.41 715.60,586.05"/>
    </edge>
    <edge id=":1392022036_4" function="internal">
        <lane id=":1392022036_4_0" index="0" disallow="tram rail_urban rail rail_electric rail_fast ship container cable_car subway aircraft wheelchair scooter drone" speed="6.44" length="9.03" shape="703.62,591.67 706.08,591.36 707.84,590.34 708.87,588.60 709.20,586.13"/>
    </edge>
    <edge id=":1392022036_5" function="internal">
        <lane id=":1392022036_5_0" index="0" disallow="tram rail_urban rail rail_electric rail_fast ship container cable_car subway aircraft wheelchair scooter drone" speed="3.65" length="4.67" shape="703.62,591.67 704.80,592.49 705.18,593.30 704.77,594.09 703.55,594.87"/>
    </edge>
    <edge id=":1392022037_0" function="internal">
        <lane id=":1392022037_0_0" index="0" allow="pedestrian delivery bicycle" speed="9.72" length="12.02" shape="665.85,594.09 653.83,593.72"/>
    </edge>
    <edge id=":1392022037_1" function="internal">
        <lane id=":1392022037_1_0" index="0" disallow="tram rail_urban rail rail_electric rail_fast ship container cable_car subway aircraft wheelchair scooter drone" speed="7.94" length="14.33" shape="665.85,594.09 661.95,593.45 659.24,591.71 657.72,588.87 657.38,584.94"/>
    </edge>
    <edge id=":1392022037_2" function="internal">
        <lane id=":1392022037_2_0" index="0" disallow="tram rail_urban rail rail_electric rail_fast ship container cable_car subway aircraft wheelchair scooter drone" speed="6.43" length="9.03" shape="660.58,585.12 660.79,587.60 661.75,589.39 663.46,590.49 665.91,590.89"/>
    </edge>
    <edge id=":1392022037_3" function="internal">
        <lane id=":1392022037_3_0" index="0" allow="pedestrian delivery bicycle" speed="7.53" length="2.89" shape="660.58,585.12 660.12,587.98"/>
    </edge>
    <edge id=":1392022037_7" function="internal">
        <lane id=":1392022037_7_0" index="0" allow="pedestrian delivery bicycle" speed="7.53" length="9.44" shape="660.12,587.98 659.96,588.99 658.63,591.72 656.59,593.29 653.83,593.72"/>
    </edge>
    <edge id=":1392022037_4" function="internal">
        <lane id=":1392022037_4_0" index="0" allow="pedestrian delivery bicycle" speed="5.93" length="7.26" shape="653.97,590.53 655.34,590.23 656.37,589.20 657.05,587.44 657.38,584.94"/>
    </edge>
    <edge id=":1392022037_5" function="internal">
        <lane id=":1392022037_5_0" index="0" allow="pedestrian delivery bicycle" speed="9.72" length="11.94" shape="653.97,590.53 665.91,590.89"/>
    </edge>
    <edge id=":1392022037_6" function="internal">
        <lane id=":1392022037_6_0" index="0" allow="pedestrian delivery bicycle" speed="3.65" length="4.67" shape="653.97,590.53 655.14,591.38 655.50,592.20 655.06,592.98 653.83,593.72"/>
    </edge>
    <edge id=":1392022043_0" function="internal">
        <lane id=":1392022043_0_0" index="0" disallow="tram rail_urban rail rail_electric rail_fast ship container cable_car subway aircraft wheelchair scooter drone" speed="3.65" length="4.67" shape="500.33,746.54 499.77,747.87 499.06,748.41 498.20,748.17 497.19,747.14"/>
    </edge>
    <edge id=":1392022044_0" function="internal">
        <lane id=":1392022044_0_0" index="0" disallow="tram rail_urban rail rail_electric rail_fast ship container cable_car subway aircraft wheelchair scooter drone" speed="13.89" length="13.78" shape="408.23,722.41 407.72,718.89 407.16,715.60 406.52,712.34 405.75,708.86"/>
    </edge>
    <edge id=":1392022044_1" function="internal">
        <lane id=":1392022044_1_0" index="0" disallow="tram rail_urban rail rail_electric rail_fast ship container cable_car subway aircraft wheelchair scooter drone" speed="8.13" length="3.89" shape="408.23,722.41 408.26,718.66 408.32,718.53"/>
    </edge>
    <edge id=":1392022044_2" function="internal">
        <lane id=":1392022044_2_0" index="0" disallow="tram rail_urban rail rail_electric rail_fast ship container cable_car subway aircraft wheelchair scooter drone" speed="3.65" length="1.44" shape="408.23,722.41 408.86,721.11"/>
    </edge>
    <edge id=":1392022044_9" function="internal">
        <lane id=":1392022044_9_0" index="0" disallow="tram rail_urban rail rail_electric rail_fast ship container cable_car subway aircraft wheelchair scooter drone" speed="8.13" length="10.01" shape="408.32,718.53 409.47,715.74 411.87,713.64 415.46,712.37"/>
    </edge>
    <edge id=":1392022044_10" function="internal">
        <lane id=":1392022044_10_0" index="0" disallow="tram rail_urban rail rail_electric rail_fast ship container cable_car subway aircraft wheelchair scooter drone" speed="3.65" length="3.23" shape="408.86,721.11 409.60,720.61 410.45,720.90 411.40,721.98"/>
    </edge>
    <edge id=":1392022044_3" function="internal">
        <lane id=":1392022044_3_0" index="0" disallow="tram rail_urban rail rail_electric rail_fast ship container cable_car subway aircraft wheelchair scooter drone" speed="6.65" length="8.99" shape="416.11,715.50 413.78,716.33 412.21,717.68 411.42,719.57 411.40,721.98"/>
    </edge>
    <edge id=":1392022044_4" function="internal">
        <lane id=":1392022044_4_0" index="0" disallow="tram rail_urban rail rail_electric rail_fast ship container cable_car subway aircraft wheelchair scooter drone" speed="8.01" length="13.96" shape="416.11,715.50 412.30,715.74 409.30,714.71 407.12,712.42 405.75,708.86"/>
    </edge>
    <edge id=":1392022044_5" function="internal">
        <lane id=":1392022044_5_0" index="0" disallow="tram rail_urban rail rail_electric rail_fast ship container cable_car subway aircraft wheelchair scooter drone" speed="3.65" length="4.67" shape="416.11,715.50 414.77,714.96 414.21,714.26 414.44,713.40 415.46,712.37"/>
    </edge>
    <edge id=":1392022044_6" function="internal">
        <lane id=":1392022044_6_0" index="0" disallow="tram rail_urban rail rail_electric rail_fast ship container cable_car subway aircraft wheelchair scooter drone" speed="6.51" length="8.88" shape="408.87,708.14 409.74,710.41 411.13,711.87 413.04,712.52 415.46,712.37"/>
    </edge>
    <edge id=":1392022044_7" function="internal">
        <lane id=":1392022044_7_0" index="0" disallow="tram rail_urban rail rail_electric rail_fast ship container cable_car subway aircraft wheelchair scooter drone" speed="13.89" length="14.07" shape="408.87,708.14 409.64,711.66 410.30,715.03 410.88,718.41 411.40,721.98"/>
    </edge>
    <edge id=":1392022044_8" function="internal">
        <lane id=":1392022044_8_0" index="0" disallow="tram rail_urban rail rail_electric rail_fast ship container cable_car subway aircraft wheelchair scooter drone" speed="3.65" length="1.44" shape="408.87,708.14 408.36,709.49"/>
    </edge>
    <edge id=":1392022044_11" function="internal">
        <lane id=":1392022044_11_0" index="0" disallow="tram rail_urban rail rail_electric rail_fast ship container cable_car subway aircraft wheelchair scooter drone" speed="3.65" length="3.23" shape="408.36,709.49 407.67,710.06 406.80,709.85 405.75,708.86"/>
    </edge>
    <edge id=":1394527941_0" function="internal">
        <lane id=":1394527941_0_0" index="0" allow="pedestrian delivery bicycle" speed="3.65" length="4.67" shape="833.00,45.72 833.74,44.47 834.51,44.03 835.33,44.39 836.20,45.54"/>
    </edge>
    <edge id=":1394527964_0" function="internal">
        <lane id=":1394527964_0_0" index="0" allow="pedestrian delivery bicycle" speed="5.56" length="9.43" shape="846.03,169.39 836.62,170.06"/>
    </edge>
    <edge id=":1394527964_1" function="internal">
        <lane id=":1394527964_1_0" index="0" allow="pedestrian delivery bicycle" speed="5.56" length="10.27" shape="846.03,169.39 843.21,169.20 841.15,168.15 839.85,166.24 839.30,163.47"/>
    </edge>
    <edge id=":1394527964_2" function="internal">
        <lane id=":1394527964_2_0" index="0" allow="pedestrian delivery bicycle" speed="3.65" length="4.67" shape="846.03,169.39 844.77,168.68 844.31,167.91 844.65,167.08 845.79,166.20"/>
    </edge>
    <edge id=":1394527964_3" function="internal">
        <lane id=":1394527964_3_0" index="0" allow="pedestrian delivery bicycle" speed="5.02" length="5.03" shape="842.49,163.30 842.76,164.66 843.40,165.59 844.41,166.10 845.79,166.20"/>
    </edge>
    <edge id=":1394527964_4" function="internal">
        <lane id=":1394527964_4_0" index="0" allow="pedestrian delivery bicycle" speed="5.56" length="10.18" shape="842.49,163.30 842.25,166.10 841.19,168.16 839.31,169.48 836.62,170.06"/>
    </edge>
    <edge id=":1394527964_5" function="internal">
        <lane id=":1394527964_5_0" index="0" allow="pedestrian delivery bicycle" speed="3.65" length="4.67" shape="842.49,163.30 841.76,164.54 840.98,164.98 840.16,164.63 839.30,163.47"/>
    </edge>
    <edge id=":1394527964_6" function="internal">
        <lane id=":1394527964_6_0" index="0" allow="pedestrian delivery bicycle" speed="5.10" length="5.08" shape="836.40,166.87 837.73,166.58 838.66,165.92 839.18,164.88 839.30,163.47"/>
    </edge>
    <edge id=":1394527964_7" function="internal">
        <lane id=":1394527964_7_0" index="0" allow="pedestrian delivery bicycle" speed="5.56" length="9.41" shape="836.40,166.87 845.79,166.20"/>
    </edge>
    <edge id=":1394527964_8" function="internal">
        <lane id=":1394527964_8_0" index="0" allow="pedestrian delivery bicycle" speed="3.65" length="4.67" shape="836.40,166.87 837.65,167.59 838.10,168.36 837.76,169.18 836.62,170.06"/>
    </edge>
    <edge id=":1394527966_0" function="internal">
        <lane id=":1394527966_0_0" index="0" allow="pedestrian delivery bicycle" speed="5.09" length="5.05" shape="713.92,178.46 712.55,178.75 711.59,179.39 711.05,180.39 710.92,181.75"/>
    </edge>
    <edge id=":1394527966_1" function="internal">
        <lane id=":1394527966_1_0" index="0" allow="pedestrian delivery bicycle" speed="3.65" length="4.67" shape="713.92,178.46 712.67,177.75 712.22,176.98 712.56,176.15 713.70,175.27"/>
    </edge>
    <edge id=":1394527966_2" function="internal">
        <lane id=":1394527966_2_0" index="0" allow="pedestrian delivery bicycle" speed="5.03" length="5.01" shape="710.41,172.37 710.69,173.72 711.33,174.65 712.33,175.17 713.70,175.27"/>
    </edge>
    <edge id=":1394527966_3" function="internal">
        <lane id=":1394527966_3_0" index="0" disallow="tram rail_urban rail rail_electric rail_fast ship container cable_car subway aircraft wheelchair scooter drone" speed="27.78" length="9.37" shape="710.41,172.37 710.92,181.75"/>
        <lane id=":1394527966_3_1" index="1" disallow="tram rail_urban rail rail_electric rail_fast ship container cable_car subway aircraft wheelchair scooter drone" speed="27.78" length="9.37" shape="707.22,172.56 707.72,181.90"/>
    </edge>
    <edge id=":1400686903_0" function="internal">
        <lane id=":1400686903_0_0" index="0" allow="pedestrian delivery bicycle" speed="5.56" length="9.01" shape="961.09,179.12 960.38,177.38 958.90,176.49 956.64,176.45 953.61,177.26"/>
    </edge>
    <edge id=":1400686903_1" function="internal">
        <lane id=":1400686903_1_0" index="0" allow="pedestrian delivery bicycle" speed="5.56" length="10.72" shape="961.09,179.12 960.52,176.10 959.85,173.93 958.95,171.83 957.71,169.00"/>
    </edge>
    <edge id=":1400686903_2" function="internal">
        <lane id=":1400686903_2_0" index="0" allow="pedestrian delivery bicycle" speed="5.56" length="9.86" shape="961.09,179.12 961.13,176.96 961.92,174.88 963.44,172.89 965.71,170.98"/>
    </edge>
    <edge id=":1400686903_3" function="internal">
        <lane id=":1400686903_3_0" index="0" allow="pedestrian delivery bicycle" speed="3.65" length="4.67" shape="961.09,179.12 961.71,177.82 962.44,177.30 963.29,177.58 964.26,178.65"/>
    </edge>
    <edge id=":1400686903_4" function="internal">
        <lane id=":1400686903_4_0" index="0" allow="pedestrian delivery bicycle" speed="5.56" length="6.33" shape="967.56,173.59 965.98,174.88 964.90,176.15 964.33,177.41 964.26,178.65"/>
    </edge>
    <edge id=":1400686903_5" function="internal">
        <lane id=":1400686903_5_0" index="0" allow="pedestrian delivery bicycle" speed="5.56" length="14.52" shape="967.56,173.59 964.32,175.15 960.82,175.87 957.20,176.38 953.61,177.26"/>
    </edge>
    <edge id=":1400686903_6" function="internal">
        <lane id=":1400686903_6_0" index="0" allow="pedestrian delivery bicycle" speed="5.56" length="13.02" shape="967.56,173.59 964.66,174.92 962.05,174.60 959.73,172.63 957.71,169.00"/>
    </edge>
    <edge id=":1400686903_7" function="internal">
        <lane id=":1400686903_7_0" index="0" allow="pedestrian delivery bicycle" speed="3.65" length="4.67" shape="967.56,173.59 966.12,173.63 965.33,173.21 965.19,172.33 965.71,170.98"/>
    </edge>
    <edge id=":1400686903_8" function="internal">