<?xml version="1.0" encoding="UTF-8"?>

<!-- generated on 2025-11-17 14:54:24.197368 by Eclipse SUMO randomTrips.py v1_25_0+0000-ac6c5a6752d
<configuration>
    <net-file value="Nga6NguyenThaiSon.net.xml"/>
    <route-file value="routes.rou.xmll"/>
    <end value="100.0"/>
</configuration>
-->

<!-- generated on 2025-11-17T14:54:24.132741+07:00 by Eclipse SUMO duarouter 1.25.0
<duarouterConfiguration xmlns:xsi="http://www.w3.org/2001/XMLSchema-instance" xsi:noNamespaceSchemaLocation="http://sumo.dlr.de/xsd/duarouterConfiguration.xsd">

    <input>
        <net-file value="Nga6NguyenThaiSon.net.xml"/>
        <route-files value="trips.trips.xml"/>
    </input>

    <output>
        <output-file value="routes.rou.xmll"/>
        <alternatives-output value="NUL"/>
    </output>

    <time>
        <begin value="0"/>
        <end value="100.0"/>
    </time>

    <report>
        <no-warnings value="true"/>
        <ignore-errors value="true"/>
        <no-step-log value="true"/>
    </report>

</duarouterConfiguration>
-->

<routes xmlns:xsi="http://www.w3.org/2001/XMLSchema-instance" xsi:noNamespaceSchemaLocation="http://sumo.dlr.de/xsd/routes_file.xsd">
    <vehicle id="0" depart="0.00">
        <route edges="32588982#6 -32588982#6 32583234#0 32583234#1 125294538 -125294538"/>
    </vehicle>
    <vehicle id="1" depart="1.00">
        <route edges="404517247#3 602009562#0 602009562#1 1269082104#1 1265213598#0 1265213598#1 1265213598#2 1265213604 1221432656#0 1221432656#1 -32588982#6 -32588982#5 -32588982#4 -389711234 389711233#3"/>
    </vehicle>
    <vehicle id="2" depart="2.00">
        <route edges="602009561 602009562#0 602009562#1 1269082104#1 1265213598#0 1265213598#1 1265213598#2 1265213604 1222522022 1265213605 1265471321#0 1265471321#1 1265213597 1267837068 239157292#0 239157292#1 404516716#0 404516716#1 404517252#0 404517252#1 32587168#0 32587168#1 32587168#2 32587168#3 32587168#4 -32587168#4 -32587168#3 -32587168#2 -32587168#1 -32587168#0"/>
    </vehicle>
    <vehicle id="3" depart="3.00">
        <route edges="125294538 -125294538"/>
    </vehicle>
    <vehicle id="4" depart="4.00">
        <route edges="-389711234 389711234 32588982#4 32588982#5 32583234#0"/>
    </vehicle>
    <vehicle id="5" depart="5.00">
        <route edges="-125294538 -32583234#1 -32583234#0 -32588982#5 -32588982#4 -389711234 -389711233#2"/>
    </vehicle>
    <vehicle id="6" depart="6.00">
        <route edges="359552103 568236971#0 568236971#1 1269082104#0 1269082104#1 1265213598#0 1265213598#1 1265213598#2 1265213604 1222522022 1265213605 1265471321#0 1265471321#1 1265213597 1267837068 239157292#0 239157292#1 404516716#0 404516716#1 404517252#0 404517252#1 32587168#0 32587168#1 32587168#2"/>
    </vehicle>
    <vehicle id="7" depart="7.00">
        <route edges="-389711234 -389711233#2 -389711233#1 -389711233#0 1116686584#0 1116686584#1 1116686584#2 1265213604 1222522022 1265213605 1265471321#0 1265471321#1 1265213597 1267837068 239157292#0 239157292#1 239157292#2 1269264047 1269082104#0 1269082104#1 32587529#0 32587529#1 32587529#2"/>
    </vehicle>
    <vehicle id="8" depart="8.00">
        <route edges="493174206#1 493174206#2 -493174206#2 -493174206#1 -493174206#0 604177378#0 604177378#1 1265213605 1265471321#0 1265471321#1 1265213597 1267837068 239157292#0 239157292#1 404516716#0"/>
    </vehicle>
    <vehicle id="9" depart="9.00">
        <route edges="1221432656#0 1221432656#1 -32588982#6 -32588982#5 -32588982#4"/>
    </vehicle>
    <vehicle id="10" depart="10.00">
        <route edges="666026431#0 666026431#1 1267837072 1265213598#1 1265213598#2 1265213604 1221432656#0 1221432656#1 1221432656#2 1221432658"/>
    </vehicle>
    <vehicle id="11" depart="11.00">
        <route edges="-32583234#2 32583234#2 1116686584#2 1265213604 1222522022 1265213605 1265471321#0 1265471321#1 1265213597 1267837068 239157292#0 239157292#1 404516716#0 404516716#1 404517252#0 404517252#1 32587168#0 32587168#1 32587168#2 32587168#3 32587168#4 -32587168#4 -32587168#3 -32587168#2 -32587168#1"/>
    </vehicle>
    <vehicle id="12" depart="12.00">
        <route edges="55880458 389711233#0 389711233#1 389711233#2 389711233#3 -32588982#1 32588982#1"/>
    </vehicle>
    <vehicle id="13" depart="13.00">
        <route edges="568236971#0 568236971#1 1269082104#0 1269082104#1 32587529#0 32587529#1"/>
    </vehicle>
    <vehicle id="14" depart="14.00">
        <route edges="-493174206#0 604177378#0 604177378#1 1265213605 1265471321#0 1265471321#1 1265213597 1267837068 239157292#0 239157292#1 239157292#2 1269264047 1269082104#0 1269082104#1 1265213598#0 1265213598#1 1265213598#2 1265213604 1221432656#0 -125294538 32583234#2 1116686584#2"/>
    </vehicle>
    <vehicle id="15" depart="15.00">
        <route edges="-32583234#0 32588982#6 1221432656#2 -493174206#2 -493174206#1"/>
    </vehicle>
    <vehicle id="16" depart="16.00">
        <route edges="32588982#5 32583234#0 32583234#1 32583234#2 1116686584#2 1265213604 1222522022 1265213605 1265471321#0 1265471321#1 1265213597 1267837068 239157292#0 239157292#1 239157292#2 1269264047 1269082104#0 1269082104#1 32587529#0 32587529#1 32587529#2 1225659500#0 1225659500#1 1225659500#2"/>
    </vehicle>
    <vehicle id="17" depart="17.00">
        <route edges="1221432658 -125294539#1 -125294539#0 32588982#3 -389711234"/>
    </vehicle>
    <vehicle id="18" depart="18.00">
        <route edges="359552103 568236971#0 568236971#1 1269082104#0 1269082104#1 1265213598#0 1265213598#1 1265213598#2 1265213604 1221432656#0 1221432656#1 -32588982#6 -32588982#5 -32588982#4 -389711234 389711233#3 32588982#2"/>
    </vehicle>
    <vehicle id="19" depart="19.00">
        <route edges="725686334#2 725686334#3 239157292#0 239157292#1 239157292#2 1269264047 1269082104#0 1269082104#1 1265213598#0 1265213598#1 1265213598#2 1265213604 1221432656#0 1221432656#1 -32588982#6 -32588982#5 -32588982#4 32588982#4 32588982#5"/>
    </vehicle>
    <vehicle id="20" depart="20.00">
        <route edges="-493174206#0 604177378#0 604177378#1 1265213605 1265471321#0 1265471321#1 1265213597 1267837068 239157292#0 239157292#1 239157292#2 1269264047 1269082104#0 1269082104#1 1265213598#0 1265213598#1 1265213598#2 1265213604 1221432656#0 -125294538"/>
    </vehicle>
    <vehicle id="21" depart="21.00">
        <route edges="1116686585#0 1116686585#1 1265213598#2 1265213604 1221432656#0 1221432656#1 -32588982#6 -32588982#5 -32588982#4 -389711234 -389711233#2 -389711233#1 -389711233#0 1116686584#0"/>
    </vehicle>
    <vehicle id="22" depart="22.00">
        <route edges="389711233#0 -389711233#0 1116686584#0 1116686584#1 -32583234#2 125294538"/>
    </vehicle>
    <vehicle id="23" depart="23.00">
        <route edges="-611082092 404517247#1 404517247#2 404517247#3 602009562#0 602009562#1 1269082104#1 1265213598#0 1265213598#1 1265213598#2 1265213604 1221432656#0 1221432656#1 -32588982#6 -32588982#5 -32588982#4 -389711234 -389711233#2 -389711233#1 -611082071"/>
    </vehicle>
    <vehicle id="24" depart="24.00">
        <route edges="1232611233#0 1232611233#1 493174206#0 493174206#1 493174206#2 -493174206#2 -493174206#1 -493174206#0"/>
    </vehicle>
    <vehicle id="25" depart="25.00">
        <route edges="725686334#3 239157292#0 239157292#1 239157292#2 1269264047 1269082104#0 1269082104#1 1265213598#0 1265213598#1 1265213598#2 1265213604 1221432656#0 -125294538 -32583234#1 32583234#1"/>
    </vehicle>
    <vehicle id="26" depart="26.00">
        <route edges="-32583234#2 125294538 1221432656#1 1221432656#2 1221432658 -125294539#1"/>
    </vehicle>
    <vehicle id="27" depart="27.00">
        <route edges="493174206#0 493174206#1 493174206#2 1221432658 -125294539#1 126327313"/>
    </vehicle>
    <vehicle id="28" depart="28.00">
        <route edges="725686334#3 239157292#0 239157292#1 404516716#0 404516716#1 404517252#0 404517252#1 32587168#0"/>
    </vehicle>
    <vehicle id="29" depart="29.00">
        <route edges="725686334#0 725686334#1 725686334#2 725686334#3 239157292#0 239157292#1 239157292#2 1269264047 1269082104#0 1269082104#1 32587529#0 32587529#1 32587529#2 1225659500#0 1225659500#1 1225659500#2 568236972#0"/>
    </vehicle>
    <vehicle id="30" depart="30.00">
        <route edges="389711233#3 -389711233#3 -389711233#2 -389711233#1 -389711233#0 1116686584#0 1116686584#1 1116686584#2 1265213604 1222522022 1265213605 1265471321#0 1265471321#1 1265213597 1267837068 239157292#0 239157292#1 404516716#0 404516716#1 404517252#0 404517252#1 32587168#0 32587168#1"/>
    </vehicle>
    <vehicle id="31" depart="31.00">
        <route edges="1116686584#1 -32583234#2 -32583234#1 -32583234#0 -32588982#5 -32588982#4 32588982#4 32588982#5"/>
    </vehicle>
    <vehicle id="32" depart="32.00">
        <route edges="32588982#2 32588982#3 32588982#4 32588982#5 -32588982#5 -32588982#4"/>
    </vehicle>
    <vehicle id="33" depart="33.00">
        <route edges="409056759#0 409056759#1 1265213597 1267837068 239157292#0 239157292#1 404516716#0 404516716#1 404517252#0 404517252#1 32587168#0 32587168#1"/>
    </vehicle>
    <vehicle id="34" depart="34.00">
        <route edges="-125294536 32583234#1 125294538 1221432656#1 1221432656#2 -493174206#2 -493174206#1 -493174206#0 604177378#0"/>
    </vehicle>
    <vehicle id="35" depart="35.00">
        <route edges="1116686584#2 1265213604 1221432656#0 1221432656#1 -32588982#6 -126327313"/>
    </vehicle>
    <vehicle id="36" depart="36.00">
        <route edges="-32583234#1 125294536 -1090460384 1116686584#1 1116686584#2 1265213604 1222522022 1265213605 1265471321#0 1265471321#1 1265213597 1267837068 239157292#0 239157292#1 239157292#2 241738918#0 241738918#1"/>
    </vehicle>
    <vehicle id="37" depart="37.00">
        <route edges="409056759#0 409056759#1 1265213597 1267837068 239157292#0 239157292#1 239157292#2 1269264047 1269082104#0 1269082104#1 1265213598#0 1265213598#1 1265213598#2 1265213604 1221432656#0 1221432656#1 1221432656#2 1221432658 -125294539#1 -125294539#0 -32588982#2 -32588982#1"/>
    </vehicle>
    <vehicle id="38" depart="38.00">
        <route edges="1268087048 1422419157 409056759#0 409056759#1 1265213597 1267837068 239157292#0 239157292#1 404516716#0 404516716#1 404517252#0 404517252#1 32587168#0 32587168#1 32587168#2"/>
    </vehicle>
    <vehicle id="39" depart="39.00">
        <route edges="-611082092 404517247#1 404517247#2 404517247#3 242172376 1225659500#0 1225659500#1 1225659500#2 568236972#0 568236972#1"/>
    </vehicle>
    <vehicle id="40" depart="40.00">
        <route edges="125294538 1221432656#1 -32588982#6 -32588982#5 -32588982#4 -389711234"/>
    </vehicle>
    <vehicle id="41" depart="41.00">
        <route edges="-389711233#1 -389711233#0 1116686584#0 1116686584#1 1116686584#2 1265213604 1221432656#0"/>
    </vehicle>
    <vehicle id="42" depart="42.00">
        <route edges="725686334#3 239157292#0 239157292#1 239157292#2 1269264047 1269082104#0 1269082104#1 1265213598#0 1265213598#1 1265213598#2 1265213604 1221432656#0 1221432656#1 -32588982#6 32588982#6"/>
    </vehicle>
    <vehicle id="43" depart="43.00">
        <route edges="125294539#1 -125294539#1 126327313 32583234#0 32583234#1 32583234#2"/>
    </vehicle>
    <vehicle id="44" depart="44.00">
        <route edges="1116686632 1267837068 239157292#0 239157292#1 239157292#2 1269264047 1269082104#0 1269082104#1 32587529#0 32587529#1 32587529#2"/>
    </vehicle>
    <vehicle id="45" depart="45.00">
        <route edges="-493174206#0"/>
    </vehicle>
    <vehicle id="46" depart="46.00">
        <route edges="-1343635389 1116686585#1 1265213598#2 1265213604 1221432656#0 1221432656#1 -32588982#6 -32588982#5 -32588982#4 32588982#4"/>
    </vehicle>
    <vehicle id="47" depart="47.00">
        <route edges="568236971#0 568236971#1 1269082104#0 1269082104#1 1265213598#0 1265213598#1 1265213598#2 1265213604 1221432656#0 -125294538 -32583234#1"/>
    </vehicle>
    <vehicle id="48" depart="48.00">
        <route edges="-493174206#1 -493174206#0 493174206#0 493174206#1 493174206#2 1221432658 -125294539#1 -125294539#0 32588982#3 -389711234 -389711233#2 -389711233#1 389711233#1 389711233#2"/>
    </vehicle>
    <vehicle id="49" depart="49.00">
        <route edges="-389711233#3 389711234 -32588982#3 -32588982#2 -32588982#1"/>
    </vehicle>
    <vehicle id="50" depart="50.00">
        <route edges="611082071 -389711233#0 1116686584#0 1116686584#1 1116686584#2 1265213604 1222522022 1265213605 1265471321#0 1265471321#1 1265213597 1267837068 239157292#0 239157292#1 239157292#2 1269264047 1269082104#0 1269082104#1 32587529#0"/>
    </vehicle>
    <vehicle id="51" depart="51.00">
        <route edges="1268087048 1422419157 409056759#0 409056759#1 1265213597 1267837068 239157292#0 239157292#1 239157292#2 1269264047 1269082104#0 1269082104#1 1265213598#0 1265213598#1 1265213598#2 1265213604 1221432656#0 1221432656#1 1221432656#2 -493174206#2 -493174206#1 -493174206#0 493174206#0"/>
    </vehicle>
    <vehicle id="52" depart="52.00">
        <route edges="493174206#2 1221432658 -125294539#1 -125294539#0 32588982#3 -389711234 -389711233#2 -389711233#1"/>
    </vehicle>
    <vehicle id="53" depart="53.00">
        <route edges="404517247#2 404517247#3 602009562#0 602009562#1 1269082104#1 1265213598#0 1265213598#1 1265213598#2 1265213604 1221432656#0 1221432656#1 -32588982#6 -32588982#5 -32588982#4 -389711234 -389711233#2 -389711233#1 389711233#1 389711233#2"/>
    </vehicle>
    <vehicle id="54" depart="54.00">
        <route edges="725686334#2 725686334#3 239157292#0 239157292#1 404516716#0 404516716#1 404517252#0 404517252#1 32587168#0 32587168#1 32587168#2 32587168#3 32587168#4 -32587168#4 -32587168#3 -32587168#2 -32587168#1"/>
    </vehicle>
    <vehicle id="55" depart="55.00">
        <route edges="1232611233#0 1232611233#1 493174206#0 493174206#1 493174206#2 1221432658"/>
    </vehicle>
    <vehicle id="56" depart="56.00">
        <route edges="568236971#0 568236971#1 1269082104#0 1269082104#1 1265213598#0 1265213598#1 1265213598#2 1265213604 1221432656#0 1221432656#1 -32588982#6 -32588982#5 -32588982#4 -389711234 -389711233#2 -389711233#1 -611082071"/>
    </vehicle>
    <vehicle id="57" depart="57.00">
        <route edges="125294538 -125294538 -32583234#1 125294536 -1090460384 1116686584#1"/>
    </vehicle>
    <vehicle id="58" depart="58.00">
        <route edges="125294539#1 -125294539#1 126327313 32583234#0 32583234#1 32583234#2 1116686584#2 1265213604 1222522022 1265213605 1265471321#0 1265471321#1 1265213597 1267837068 239157292#0 239157292#1 239157292#2 1269264047 1269082104#0 1269082104#1 32587529#0 32587529#1 32587529#2 1225659500#0 1225659500#1 1225659500#2 568236972#0"/>
    </vehicle>
    <vehicle id="59" depart="59.00">
        <route edges="725686334#3 239157292#0 239157292#1 239157292#2 1269264047 1269082104#0 1269082104#1 1265213598#0 1265213598#1 1265213598#2 1265213604 1222522022 1265213605 55880457"/>
    </vehicle>
    <vehicle id="60" depart="60.00">
        <route edges="725686334#0 725686334#1 725686334#2 725686334#3 239157292#0 239157292#1 239157292#2 1269264047 1269082104#0 1269082104#1 1265213598#0 1265213598#1 1265213598#2 1265213604 1221432656#0 1221432656#1 1221432656#2 -493174206#2 -493174206#1 -493174206#0 604177378#0"/>
    </vehicle>
    <vehicle id="61" depart="61.00">
        <route edges="55880458 1116686584#0 1116686584#1 -32583234#2 -32583234#1 -32583234#0 -32588982#5"/>
    </vehicle>
    <vehicle id="62" depart="62.00">
        <route edges="1422419157 409056759#0 409056759#1 1265213597 1267837068 239157292#0 239157292#1 239157292#2 1269264047 1269082104#0 1269082104#1 1265213598#0 1265213598#1 1265213598#2 1265213604 1221432656#0 1221432656#1 -32588982#6 -32588982#5 -32588982#4 -389711234"/>
    </vehicle>
    <vehicle id="63" depart="63.00">
        <route edges="1232611233#0 1232611233#1 604177378#0 604177378#1 1265213605 1265471321#0 1265471321#1 1265213597 1267837068 239157292#0 239157292#1 239157292#2 1269264047 1269082104#0 1269082104#1 1265213598#0 1265213598#1 1265213598#2 1265213604 1221432656#0 -125294538 -32583234#1 -32583234#0"/>
    </vehicle>
    <vehicle id="64" depart="64.00">
        <route edges="-611082092 404517247#1 404517247#2 404517247#3 602009562#0 602009562#1 1269082104#1 1265213598#0 1265213598#1 1265213598#2 1265213604 1221432656#0 1221432656#1 1221432656#2 -493174206#2 -493174206#1 -493174206#0 493174206#0"/>
    </vehicle>
    <vehicle id="65" depart="65.00">
        <route edges="-32588982#3 -32588982#2 -389711233#3 -389711233#2 -389711233#1 -389711233#0 1116686585#0"/>
    </vehicle>
    <vehicle id="66" depart="66.00">
        <route edges="725686334#0 725686334#1 725686334#2 725686334#3 239157292#0 239157292#1 239157292#2 1269264047 1269082104#0 1269082104#1 32587529#0 32587529#1"/>
    </vehicle>
    <vehicle id="67" depart="67.00">
        <route edges="-32583234#0 -32588982#5 -32588982#4 -389711234 -389711233#2 -389711233#1"/>
    </vehicle>
    <vehicle id="68" depart="68.00">
        <route edges="32588982#0 32588982#1 -389711233#3 389711233#3"/>
    </vehicle>
    <vehicle id="69" depart="69.00">
        <route edges="-493174206#1 -493174206#0 493174206#0 493174206#1 493174206#2 1221432658 -125294539#1 -125294539#0 -32588982#2 -32588982#1 -32588982#0"/>
    </vehicle>
    <vehicle id="70" depart="70.00">
        <route edges="602009561 602009562#0 602009562#1 1269082104#1 1265213598#0 1265213598#1 1265213598#2 1265213604 1221432656#0 1221432656#1 -32588982#6 -32588982#5 -32588982#4 -389711234 -389711233#2 -389711233#1 -611082071"/>
    </vehicle>
    <vehicle id="71" depart="71.00">
        <route edges="32588982#0 32588982#1 32588982#2 32588982#3"/>
    </vehicle>
    <vehicle id="72" depart="72.00">
        <route edges="125294536 -1090460384 1116686584#1 1116686584#2 1265213604 1222522022 1265213605 1265471321#0 1265471321#1 1265213597 1267837068 239157292#0 239157292#1 239157292#2 1269264047 1269082104#0 1269082104#1 32587529#0 32587529#1 32587529#2"/>
    </vehicle>
    <vehicle id="73" depart="73.00">
        <route edges="32583234#1 125294538 1221432656#1 1221432656#2 -493174206#2 -493174206#1 -493174206#0 604177378#0 604177378#1"/>
    </vehicle>
    <vehicle id="74" depart="74.00">
        <route edges="-493174206#1 -493174206#0 493174206#0 493174206#1 493174206#2 1221432658 -125294539#1 126327313 32583234#0 32583234#1 125294538"/>
    </vehicle>
    <vehicle id="75" depart="75.00">
        <route edges="389711233#2 -389711233#2 -389711233#1 -389711233#0 1116686585#0"/>
    </vehicle>
    <vehicle id="76" depart="76.00">
        <route edges="1116686585#0 1116686585#1 1265213598#2 1265213604 1222522022 1265213605 1265471321#0 1265471321#1 1265213597 1267837068 239157292#0 239157292#1 404516716#0 404516716#1 404517252#0 404517252#1 404517252#2"/>
    </vehicle>
    <vehicle id="77" depart="77.00">
        <route edges="-1343635389 1343635389"/>
    </vehicle>
    <vehicle id="78" depart="78.00">
        <route edges="725686334#3"/>
    </vehicle>
    <vehicle id="79" depart="79.00">
        <route edges="-32583234#0 -32588982#5 -32588982#4 -389711234"/>
    </vehicle>
    <vehicle id="80" depart="80.00">
        <route edges="-611082092 404517247#1 404517247#2 404517247#3 602009562#0 602009562#1 1269082104#1 1265213598#0 1265213598#1 1265213598#2 1265213604 1221432656#0 1221432656#1 1221432656#2 -493174206#2 -493174206#1 -493174206#0 604177378#0"/>
    </vehicle>
    <vehicle id="81" depart="81.00">
        <route edges="568236972#1 568236972#2"/>
    </vehicle>
    <vehicle id="82" depart="82.00">
        <route edges="1221432658 -125294539#1 126327313 -32588982#5 -32588982#4"/>
    </vehicle>
    <vehicle id="83" depart="83.00">
        <route edges="389711233#1 389711233#2 389711234 32588982#4 32588982#5 32588982#6 1221432656#2 -493174206#2 -493174206#1 -493174206#0 604177378#0 604177378#1"/>
    </vehicle>
    <vehicle id="84" depart="84.00">
        <route edges="-32587168#4 -32587168#3"/>
    </vehicle>
    <vehicle id="85" depart="85.00">
        <route edges="-32587168#1 -32587168#0 32587168#0 32587168#1 32587168#2 32587168#3"/>
    </vehicle>
    <vehicle id="86" depart="86.00">
        <route edges="404517247#0 404517247#1 404517247#2 404517247#3 602009562#0 602009562#1 1269082104#1 1265213598#0 1265213598#1 1265213598#2 1265213604 1221432656#0 1221432656#1 1221432656#2 1221432658 -125294539#1 -125294539#0 -32588982#2 -389711233#3"/>
    </vehicle>
    <vehicle id="87" depart="87.00">
        <route edges="32588982#5 32583234#0 125294536 -1090460384 1090460384"/>
    </vehicle>
    <vehicle id="88" depart="88.00">
        <route edges="125294538 -125294538 -32583234#1 125294536 -1090460384 1116686584#1"/>
    </vehicle>
    <vehicle id="89" depart="89.00">
        <route edges="32588982#6 -32588982#6 -32588982#5 -32588982#4 -389711234 -389711233#2 -389711233#1 -389711233#0 1116686584#0 1090460384"/>
    </vehicle>
    <vehicle id="90" depart="90.00">
        <route edges="404517247#3 602009562#0 602009562#1 1269082104#1 1265213598#0 1265213598#1 1265213598#2 1265213604 1222522022 1265213605 1265471321#0 1265471321#1 1265213597 1267837068 239157292#0 239157292#1 404516716#0 404516716#1 404517252#0 404517252#1 32587168#0 32587168#1 32587168#2 32587168#3"/>
    </vehicle>
    <vehicle id="91" depart="91.00">
        <route edges="125294539#0 126327313 32583234#0 125294536 -1090460384"/>
    </vehicle>
    <vehicle id="92" depart="92.00">
        <route edges="-32583234#0 32583234#0 32583234#1 32583234#2 1116686584#2 1265213604 1222522022 1265213605 1265471321#0 1265471321#1 1265213597 1267837068 239157292#0 239157292#1 239157292#2 1269264047 1269082104#0 1269082104#1 32587529#0 32587529#1 32587529#2 1225659500#0 1225659500#1 1225659500#2 568236972#0 568236972#1 568236972#2"/>
    </vehicle>
    <vehicle id="93" depart="93.00">
        <route edges="602009562#1 1269082104#1 1265213598#0 1265213598#1 1265213598#2 1265213604 1222522022 1265213605 1265471321#0 1265471321#1 1265213597 1267837068 239157292#0 239157292#1 404516716#0 404516716#1 404517252#0 404517252#1 32587168#0 32587168#1 32587168#2"/>
    </vehicle>
    <vehicle id="94" depart="94.00">
        <route edges="-32588982#2 -32588982#1"/>
    </vehicle>
    <vehicle id="95" depart="95.00">
        <route edges="493174206#0 493174206#1 493174206#2 -493174206#2 -493174206#1 -493174206#0 604177378#0 604177378#1 1265213605 1265471321#0 1265471321#1 1265213597 1267837068 239157292#0 239157292#1 239157292#2 1269264047 1269082104#0 1269082104#1 32587529#0 32587529#1 32587529#2 1225659500#0 1225659500#1 1225659500#2 568236972#0"/>
    </vehicle>
    <vehicle id="96" depart="96.00">
        <route edges="602009562#0 602009562#1 1269082104#1 1265213598#0 1265213598#1 1265213598#2 1265213604 1221432656#0 1221432656#1 -32588982#6 -32588982#5 -32588982#4 -389711234"/>
    </vehicle>
    <vehicle id="97" depart="97.00">
        <route edges="-493174206#2 -493174206#1 -493174206#0 604177378#0 604177378#1 1265213605 1265471321#0 1265471321#1 1265213597 1267837068 239157292#0 239157292#1 404516716#0 404516716#1 404517252#0 404517252#1 32587168#0 32587168#1 32587168#2 32587168#3 32587168#4 -32587168#4 -32587168#3 -32587168#2"/>
    </vehicle>
    <vehicle id="98" depart="98.00">
        <route edges="1232611233#1 493174206#0 493174206#1 493174206#2 1221432658 -125294539#1 -125294539#0 32588982#3"/>
    </vehicle>
    <vehicle id="99" depart="99.00">
        <route edges="-32588982#3 125294539#0 126327313 32588982#6 1221432656#2 -493174206#2 -493174206#1 -493174206#0 604177378#0"/>
    </vehicle>
</routes>
