<!--
 Copyright (c) 2025 Green Wave Team
 
 This software is released under the MIT License.
 https://opensource.org/licenses/MIT
-->

<?xml version="1.0" encoding="UTF-8"?>

<!-- generated on 2025-11-17T12:56:13.627582+07:00 by Eclipse SUMO netedit 1.25.0
<neteditConfiguration xmlns:xsi="http://www.w3.org/2001/XMLSchema-instance" xsi:noNamespaceSchemaLocation="http://sumo.dlr.de/xsd/neteditConfiguration.xsd">

    <input>
        <sumocfg-file value="D:\OLP\SUMO\QuangTrung\quangtrungcar.sumocfg"/>
        <route-files value="D:\OLP\SUMO\QuangTrung\routes.rou.xml"/>
        <sumo-net-file value="D:\OLP\SUMO\QuangTrung\quangtrung.net.xml"/>
    </input>

    <output>
        <output-file value="D:\OLP\SUMO\QuangTrung\quangtrung.net.xml"/>
    </output>

    <processing>
        <geometry.min-radius.fix.railways value="false"/>
        <geometry.avoid-overlap value="false"/>
        <geometry.max-grade.fix value="false"/>
        <offset.disable-normalization value="true"/>
        <lefthand value="0"/>
    </processing>

    <junctions>
        <no-turnarounds value="true"/>
        <junctions.corner-detail value="5"/>
        <junctions.limit-turn-speed value="5.50"/>
        <rectangular-lane-cut value="0"/>
    </junctions>

    <pedestrian>
        <walkingareas value="0"/>
    </pedestrian>

</neteditConfiguration>
-->

<net version="1.20" junctionCornerDetail="5" limitTurnSpeed="5.50" avoidOverlap="0" xmlns:xsi="http://www.w3.org/2001/XMLSchema-instance" xsi:noNamespaceSchemaLocation="http://sumo.dlr.de/xsd/net_file.xsd">

    <location netOffset="-681311.54,-1196012.67" convBoundary="0.00,0.00,3059.30,2367.13" origBoundary="106.636642,10.814866,106.686481,10.836365" projParameter="+proj=utm +zone=48 +ellps=WGS84 +datum=WGS84 +units=m +no_defs"/>

    <type id="highway.footway" priority="1" numLanes="1" speed="2.78" allow="pedestrian" oneway="1" width="2.00"/>
    <type id="highway.primary" priority="12" numLanes="2" speed="27.78" disallow="tram rail_urban rail rail_electric rail_fast ship container cable_car subway aircraft wheelchair scooter drone" oneway="0"/>
    <type id="highway.primary_link" priority="7" numLanes="1" speed="22.22" disallow="tram rail_urban rail rail_electric rail_fast ship container cable_car subway aircraft wheelchair scooter drone" oneway="0"/>
    <type id="highway.residential" priority="3" numLanes="1" speed="13.89" disallow="tram rail_urban rail rail_electric rail_fast ship container cable_car subway aircraft wheelchair scooter drone" oneway="0"/>
    <type id="highway.secondary" priority="11" numLanes="1" speed="27.78" disallow="tram rail_urban rail rail_electric rail_fast ship container cable_car subway aircraft wheelchair scooter drone" oneway="0"/>
    <type id="highway.service" priority="1" numLanes="1" speed="5.56" allow="pedestrian delivery bicycle" oneway="0"/>

    <edge id=":10921155300_0" function="internal">
        <lane id=":10921155300_0_0" index="0" allow="pedestrian delivery bicycle" speed="3.65" length="4.67" shape="2423.53,1069.60 2422.73,1070.80 2421.93,1071.20 2421.13,1070.80 2420.33,1069.60"/>
    </edge>
    <edge id=":10938999693_0" function="internal">
        <lane id=":10938999693_0_0" index="0" disallow="tram rail_urban rail rail_electric rail_fast ship container cable_car subway aircraft wheelchair scooter drone" speed="7.45" length="11.41" shape="2341.54,1312.41 2338.18,1310.61 2336.00,1308.64 2335.02,1306.51 2335.23,1304.20"/>
        <lane id=":10938999693_0_1" index="1" disallow="tram rail_urban rail rail_electric rail_fast ship container cable_car subway aircraft wheelchair scooter drone" speed="5.72" length="6.32" shape="2342.81,1309.47 2340.56,1308.39 2339.02,1307.41 2338.20,1306.52 2338.09,1305.73"/>
    </edge>
    <edge id=":10938999693_2" function="internal">
        <lane id=":10938999693_2_0" index="0" disallow="tram rail_urban rail rail_electric rail_fast ship container cable_car subway aircraft wheelchair scooter drone" speed="27.78" length="10.73" shape="2328.76,1313.34 2332.37,1302.67"/>
        <lane id=":10938999693_2_1" index="1" disallow="tram rail_urban rail rail_electric rail_fast ship container cable_car subway aircraft wheelchair scooter drone" speed="27.78" length="10.73" shape="2331.79,1314.37 2335.23,1304.20"/>
        <lane id=":10938999693_2_2" index="2" disallow="tram rail_urban rail rail_electric rail_fast ship container cable_car subway aircraft wheelchair scooter drone" speed="27.78" length="10.73" shape="2334.83,1315.39 2338.09,1305.73"/>
    </edge>
    <edge id=":10939359163_0" function="internal">
        <lane id=":10939359163_0_0" index="0" allow="pedestrian delivery bicycle" speed="5.13" length="5.11" shape="2467.43,1116.53 2466.08,1116.05 2464.90,1116.10 2463.91,1116.66 2463.08,1117.74"/>
    </edge>
    <edge id=":10939359163_1" function="internal">
        <lane id=":10939359163_1_0" index="0" allow="pedestrian delivery bicycle" speed="3.65" length="4.67" shape="2467.43,1116.53 2466.72,1115.27 2466.73,1114.38 2467.46,1113.85 2468.89,1113.69"/>
    </edge>
    <edge id=":10939359163_2" function="internal">
        <lane id=":10939359163_2_0" index="0" allow="pedestrian delivery bicycle" speed="5.01" length="5.03" shape="2467.61,1109.49 2467.12,1110.79 2467.17,1111.92 2467.76,1112.89 2468.89,1113.69"/>
    </edge>
    <edge id=":10939359163_3" function="internal">
        <lane id=":10939359163_3_0" index="0" disallow="tram rail_urban rail rail_electric rail_fast ship container cable_car subway aircraft wheelchair scooter drone" speed="27.78" length="9.40" shape="2467.61,1109.49 2463.08,1117.74"/>
        <lane id=":10939359163_3_1" index="1" disallow="tram rail_urban rail rail_electric rail_fast ship container cable_car subway aircraft wheelchair scooter drone" speed="27.78" length="9.40" shape="2464.80,1107.95 2460.28,1116.20"/>
    </edge>
    <edge id=":10939359164_0" function="internal">
        <lane id=":10939359164_0_0" index="0" disallow="tram rail_urban rail rail_electric rail_fast ship container cable_car subway aircraft wheelchair scooter drone" speed="27.78" length="9.88" shape="2462.71,1093.73 2458.06,1102.14"/>
        <lane id=":10939359164_0_1" index="1" disallow="tram rail_urban rail rail_electric rail_fast ship container cable_car subway aircraft wheelchair scooter drone" speed="27.78" length="9.88" shape="2460.17,1091.72 2455.26,1100.59"/>
    </edge>
    <edge id=":10939359164_2" function="internal">
        <lane id=":10939359164_2_0" index="0" disallow="tram rail_urban rail rail_electric rail_fast ship container cable_car subway aircraft wheelchair scooter drone" speed="8.08" length="9.17" shape="2460.17,1091.72 2458.64,1094.01 2456.96,1095.63 2455.12,1096.59 2453.13,1096.87"/>
    </edge>
    <edge id=":10939359164_3" function="internal">
        <lane id=":10939359164_3_0" index="0" disallow="tram rail_urban rail rail_electric rail_fast ship container cable_car subway aircraft wheelchair scooter drone" speed="5.79" length="9.46" shape="2453.21,1093.67 2455.51,1094.16 2456.62,1095.47 2456.54,1097.62 2455.26,1100.59"/>
    </edge>
    <edge id=":10939359164_4" function="internal">
        <lane id=":10939359164_4_0" index="0" disallow="tram rail_urban rail rail_electric rail_fast ship container cable_car subway aircraft wheelchair scooter drone" speed="3.65" length="4.67" shape="2453.21,1093.67 2454.39,1094.50 2454.77,1095.31 2454.35,1096.10 2453.13,1096.87"/>
    </edge>
    <edge id=":11021735106_0" function="internal">
        <lane id=":11021735106_0_0" index="0" disallow="tram rail_urban rail rail_electric rail_fast ship container cable_car subway aircraft wheelchair scooter drone" speed="27.78" length="9.68" shape="2263.06,1058.47 2260.15,1049.24"/>
        <lane id=":11021735106_0_1" index="1" disallow="tram rail_urban rail rail_electric rail_fast ship container cable_car subway aircraft wheelchair scooter drone" speed="27.78" length="9.68" shape="2266.10,1057.49 2263.19,1048.25"/>
        <lane id=":11021735106_0_2" index="2" disallow="tram rail_urban rail rail_electric rail_fast ship container cable_car subway aircraft wheelchair scooter drone" speed="27.78" length="9.68" shape="2269.15,1056.50 2266.24,1047.27"/>
    </edge>
    <edge id=":11021735106_3" function="internal">
        <lane id=":11021735106_3_0" index="0" allow="pedestrian delivery bicycle" speed="5.85" length="8.67" shape="2269.15,1056.50 2268.49,1053.58 2268.68,1051.49 2269.72,1050.21 2271.59,1049.75"/>
    </edge>
    <edge id=":11021735106_4" function="internal">
        <lane id=":11021735106_4_0" index="0" allow="pedestrian delivery bicycle" speed="7.67" length="10.49" shape="2271.67,1052.94 2268.47,1052.71 2265.99,1051.86 2264.23,1050.37 2263.19,1048.25"/>
        <lane id=":11021735106_4_1" index="1" allow="pedestrian delivery bicycle" speed="6.95" length="8.48" shape="2271.67,1052.94 2269.90,1052.62 2268.40,1051.57 2267.18,1049.79 2266.24,1047.27"/>
    </edge>
    <edge id=":11021735106_6" function="internal">
        <lane id=":11021735106_6_0" index="0" allow="pedestrian delivery bicycle" speed="3.65" length="4.67" shape="2271.67,1052.94 2270.45,1052.17 2270.03,1051.38 2270.41,1050.57 2271.59,1049.75"/>
    </edge>
    <edge id=":11021735107_0" function="internal">
        <lane id=":11021735107_0_0" index="0" disallow="tram rail_urban rail rail_electric rail_fast ship container cable_car subway aircraft wheelchair scooter drone" speed="27.78" length="8.10" shape="2253.23,1024.42 2251.15,1016.55"/>
        <lane id=":11021735107_0_1" index="1" disallow="tram rail_urban rail rail_electric rail_fast ship container cable_car subway aircraft wheelchair scooter drone" speed="27.78" length="8.10" shape="2256.33,1023.64 2254.26,1015.80"/>
        <lane id=":11021735107_0_2" index="2" disallow="tram rail_urban rail rail_electric rail_fast ship container cable_car subway aircraft wheelchair scooter drone" speed="27.78" length="8.10" shape="2259.43,1022.85 2257.38,1015.06"/>
    </edge>
    <edge id=":11021735107_3" function="internal">
        <lane id=":11021735107_3_0" index="0" disallow="tram rail_urban rail rail_electric rail_fast ship container cable_car subway aircraft wheelchair scooter drone" speed="27.78" length="8.20" shape="2253.21,1024.43 2253.08,1022.04 2252.59,1020.45 2251.89,1018.88 2251.15,1016.55"/>
        <lane id=":11021735107_3_1" index="1" disallow="tram rail_urban rail rail_electric rail_fast ship container cable_car subway aircraft wheelchair scooter drone" speed="27.78" length="8.20" shape="2256.44,1023.61 2256.29,1021.24 2255.75,1019.67 2255.02,1018.12 2254.26,1015.80"/>
    </edge>
    <edge id=":11152021175_0" function="internal">
        <lane id=":11152021175_0_0" index="0" disallow="tram rail_urban rail rail_electric rail_fast ship container cable_car subway aircraft wheelchair scooter drone" speed="3.65" length="4.67" shape="1976.78,785.57 1977.02,784.15 1977.59,783.46 1978.48,783.50 1979.70,784.27"/>
    </edge>
    <edge id=":11219391834_0" function="internal">
        <lane id=":11219391834_0_0" index="0" disallow="tram rail_urban rail rail_electric rail_fast ship container cable_car subway aircraft wheelchair scooter drone" speed="6.45" length="9.03" shape="2287.68,1134.09 2286.51,1131.89 2284.93,1130.62 2282.93,1130.27 2280.51,1130.84"/>
    </edge>
    <edge id=":11219391834_1" function="internal">
        <lane id=":11219391834_1_0" index="0" disallow="tram rail_urban rail rail_electric rail_fast ship container cable_car subway aircraft wheelchair scooter drone" speed="27.78" length="11.27" shape="2287.68,1134.09 2283.85,1123.49"/>
        <lane id=":11219391834_1_1" index="1" disallow="tram rail_urban rail rail_electric rail_fast ship container cable_car subway aircraft wheelchair scooter drone" speed="27.78" length="11.27" shape="2290.69,1133.00 2286.86,1122.40"/>
    </edge>
    <edge id=":11219391834_3" function="internal">
        <lane id=":11219391834_3_0" index="0" disallow="tram rail_urban rail rail_electric rail_fast ship container cable_car subway aircraft wheelchair scooter drone" speed="5.81" length="6.83" shape="2279.34,1127.86 2281.62,1126.80 2283.14,1125.72 2283.88,1124.62 2283.85,1123.49"/>
    </edge>
    <edge id=":11219391834_4" function="internal">
        <lane id=":11219391834_4_0" index="0" disallow="tram rail_urban rail rail_electric rail_fast ship container cable_car subway aircraft wheelchair scooter drone" speed="3.65" length="4.67" shape="2279.34,1127.86 2280.75,1128.16 2281.41,1128.76 2281.33,1129.65 2280.51,1130.84"/>
    </edge>
    <edge id=":11219391836_0" function="internal">
        <lane id=":11219391836_0_0" index="0" disallow="tram rail_urban rail rail_electric rail_fast ship container cable_car subway aircraft wheelchair scooter drone" speed="10.88" length="10.97" shape="2248.96,1143.23 2247.13,1144.72 2245.60,1146.75 2244.37,1149.31 2243.44,1152.40"/>
    </edge>
    <edge id=":11219391836_1" function="internal">
        <lane id=":11219391836_1_0" index="0" disallow="tram rail_urban rail rail_electric rail_fast ship container cable_car subway aircraft wheelchair scooter drone" speed="13.12" length="13.55" shape="2248.96,1143.23 2245.82,1144.77 2242.68,1145.55 2239.41,1145.69 2235.88,1145.33"/>
    </edge>
    <edge id=":11219391836_2" function="internal">
        <lane id=":11219391836_2_0" index="0" disallow="tram rail_urban rail rail_electric rail_fast ship container cable_car subway aircraft wheelchair scooter drone" speed="3.65" length="1.44" shape="2248.96,1143.23 2247.52,1143.18"/>
    </edge>
    <edge id=":11219391836_9" function="internal">
        <lane id=":11219391836_9_0" index="0" disallow="tram rail_urban rail rail_electric rail_fast ship container cable_car subway aircraft wheelchair scooter drone" speed="3.65" length="3.23" shape="2247.52,1143.18 2246.76,1142.71 2246.68,1141.82 2247.28,1140.50"/>
    </edge>
    <edge id=":11219391836_3" function="internal">
        <lane id=":11219391836_3_0" index="0" disallow="tram rail_urban rail rail_electric rail_fast ship container cable_car subway aircraft wheelchair scooter drone" speed="12.10" length="11.48" shape="2236.26,1142.15 2239.47,1142.58 2242.03,1142.60 2244.46,1141.98 2247.28,1140.50"/>
    </edge>
    <edge id=":11219391836_4" function="internal">
        <lane id=":11219391836_4_0" index="0" disallow="tram rail_urban rail rail_electric rail_fast ship container cable_car subway aircraft wheelchair scooter drone" speed="7.89" length="3.72" shape="2236.26,1142.15 2239.83,1143.22"/>
    </edge>
    <edge id=":11219391836_5" function="internal">
        <lane id=":11219391836_5_0" index="0" disallow="tram rail_urban rail rail_electric rail_fast ship container cable_car subway aircraft wheelchair scooter drone" speed="3.65" length="1.44" shape="2236.26,1142.15 2237.36,1143.08"/>
    </edge>
    <edge id=":11219391836_10" function="internal">
        <lane id=":11219391836_10_0" index="0" disallow="tram rail_urban rail rail_electric rail_fast ship container cable_car subway aircraft wheelchair scooter drone" speed="7.89" length="10.80" shape="2239.83,1143.22 2240.17,1143.32 2242.66,1145.42 2243.76,1148.45 2243.44,1152.40"/>
    </edge>
    <edge id=":11219391836_11" function="internal">
        <lane id=":11219391836_11_0" index="0" disallow="tram rail_urban rail rail_electric rail_fast ship container cable_car subway aircraft wheelchair scooter drone" speed="3.65" length="3.23" shape="2237.36,1143.08 2237.66,1143.93 2237.17,1144.67 2235.88,1145.33"/>
    </edge>
    <edge id=":11219391836_6" function="internal">
        <lane id=":11219391836_6_0" index="0" disallow="tram rail_urban rail rail_electric rail_fast ship container cable_car subway aircraft wheelchair scooter drone" speed="6.34" length="9.00" shape="2240.32,1151.68 2240.52,1149.23 2239.84,1147.35 2238.30,1146.05 2235.88,1145.33"/>
    </edge>
    <edge id=":11219391836_7" function="internal">
        <lane id=":11219391836_7_0" index="0" disallow="tram rail_urban rail rail_electric rail_fast ship container cable_car subway aircraft wheelchair scooter drone" speed="12.03" length="13.50" shape="2240.32,1151.68 2241.45,1147.98 2242.99,1144.88 2244.93,1142.39 2247.28,1140.50"/>
    </edge>
    <edge id=":11219391836_8" function="internal">
        <lane id=":11219391836_8_0" index="0" disallow="tram rail_urban rail rail_electric rail_fast ship container cable_car subway aircraft wheelchair scooter drone" speed="3.65" length="4.67" shape="2240.32,1151.68 2241.37,1150.69 2242.24,1150.48 2242.93,1151.05 2243.44,1152.40"/>
    </edge>
    <edge id=":11219401338_0" function="internal">
        <lane id=":11219401338_0_0" index="0" disallow="tram rail_urban rail rail_electric rail_fast ship container cable_car subway aircraft wheelchair scooter drone" speed="13.89" length="15.08" shape="2199.25,1184.51 2199.13,1180.74 2199.01,1176.95 2199.13,1173.18 2199.68,1169.48"/>
    </edge>
    <edge id=":11219401338_1" function="internal">
        <lane id=":11219401338_1_0" index="0" disallow="tram rail_urban rail rail_electric rail_fast ship container cable_car subway aircraft wheelchair scooter drone" speed="10.16" length="3.39" shape="2199.25,1184.51 2199.77,1181.17"/>
    </edge>
    <edge id=":11219401338_2" function="internal">
        <lane id=":11219401338_2_0" index="0" disallow="tram rail_urban rail rail_electric rail_fast ship container cable_car subway aircraft wheelchair scooter drone" speed="3.65" length="1.44" shape="2199.25,1184.51 2200.03,1183.30"/>
    </edge>
    <edge id=":11219401338_9" function="internal">
        <lane id=":11219401338_9_0" index="0" disallow="tram rail_urban rail rail_electric rail_fast ship container cable_car subway aircraft wheelchair scooter drone" speed="10.16" length="12.01" shape="2199.77,1181.17 2201.44,1178.13 2204.24,1175.40 2208.19,1172.97"/>
    </edge>
    <edge id=":11219401338_10" function="internal">
        <lane id=":11219401338_10_0" index="0" disallow="tram rail_urban rail rail_electric rail_fast ship container cable_car subway aircraft wheelchair scooter drone" speed="3.65" length="3.23" shape="2200.03,1183.30 2200.83,1182.89 2201.63,1183.28 2202.45,1184.47"/>
    </edge>
    <edge id=":11219401338_3" function="internal">
        <lane id=":11219401338_3_0" index="0" disallow="tram rail_urban rail rail_electric rail_fast ship container cable_car subway aircraft wheelchair scooter drone" speed="8.96" length="11.82" shape="2209.63,1175.83 2206.46,1177.74 2204.21,1179.81 2202.87,1182.06 2202.45,1184.47"/>
    </edge>
    <edge id=":11219401338_4" function="internal">
        <lane id=":11219401338_4_0" index="0" disallow="tram rail_urban rail rail_electric rail_fast ship container cable_car subway aircraft wheelchair scooter drone" speed="7.29" length="17.76" shape="2209.63,1175.83 2204.15,1177.87 2200.67,1177.49 2199.18,1174.70 2199.68,1169.48"/>
    </edge>
    <edge id=":11219401338_5" function="internal">
        <lane id=":11219401338_5_0" index="0" disallow="tram rail_urban rail rail_electric rail_fast ship container cable_car subway aircraft wheelchair scooter drone" speed="3.65" length="4.67" shape="2209.63,1175.83 2208.19,1175.66 2207.48,1175.12 2207.48,1174.23 2208.19,1172.97"/>
    </edge>
    <edge id=":11219401338_6" function="internal">
        <lane id=":11219401338_6_0" index="0" disallow="tram rail_urban rail rail_electric rail_fast ship container cable_car subway aircraft wheelchair scooter drone" speed="5.52" length="9.49" shape="2202.98,1169.44 2202.69,1172.28 2203.47,1173.81 2205.30,1174.04 2208.19,1172.97"/>
    </edge>
    <edge id=":11219401338_7" function="internal">
        <lane id=":11219401338_7_0" index="0" disallow="tram rail_urban rail rail_electric rail_fast ship container cable_car subway aircraft wheelchair scooter drone" speed="13.89" length="15.08" shape="2202.98,1169.44 2202.41,1173.14 2202.26,1176.91 2202.34,1180.70 2202.45,1184.47"/>
    </edge>
    <edge id=":11219401338_8" function="internal">
        <lane id=":11219401338_8_0" index="0" disallow="tram rail_urban rail rail_electric rail_fast ship container cable_car subway aircraft wheelchair scooter drone" speed="3.69" length="1.61" shape="2202.98,1169.44 2202.17,1170.69 2202.05,1170.75"/>
    </edge>
    <edge id=":11219401338_11" function="internal">
        <lane id=":11219401338_11_0" index="0" disallow="tram rail_urban rail rail_electric rail_fast ship container cable_car subway aircraft wheelchair scooter drone" speed="3.69" length="3.20" shape="2202.05,1170.75 2201.35,1171.11 2200.52,1170.70 2199.68,1169.48"/>
    </edge>
    <edge id=":11219401340_0" function="internal">
        <lane id=":11219401340_0_0" index="0" disallow="tram rail_urban rail rail_electric rail_fast ship container cable_car subway aircraft wheelchair scooter drone" speed="3.65" length="4.67" shape="2218.75,1142.68 2217.68,1141.71 2217.41,1140.86 2217.93,1140.13 2219.23,1139.52"/>
    </edge>
    <edge id=":11251317840_0" function="internal">
        <lane id=":11251317840_0_0" index="0" disallow="tram rail_urban rail rail_electric rail_fast ship container cable_car subway aircraft wheelchair scooter drone" speed="6.09" length="9.02" shape="2183.20,1388.10 2182.63,1385.62 2181.41,1384.10 2179.54,1383.53 2177.00,1383.91"/>
    </edge>
    <edge id=":11251317840_1" function="internal">
        <lane id=":11251317840_1_0" index="0" disallow="tram rail_urban rail rail_electric rail_fast ship container cable_car subway aircraft wheelchair scooter drone" speed="7.91" length="15.05" shape="2183.20,1388.10 2183.29,1383.16 2184.46,1379.68 2186.72,1377.64 2190.07,1377.05"/>
    </edge>
    <edge id=":11251317840_2" function="internal">
        <lane id=":11251317840_2_0" index="0" disallow="tram rail_urban rail rail_electric rail_fast ship container cable_car subway aircraft wheelchair scooter drone" speed="3.65" length="4.68" shape="2183.20,1388.10 2183.85,1386.81 2184.60,1386.32 2185.44,1386.63 2186.38,1387.73"/>
    </edge>
    <edge id=":11251317840_3" function="internal">
        <lane id=":11251317840_3_0" index="0" disallow="tram rail_urban rail rail_electric rail_fast ship container cable_car subway aircraft wheelchair scooter drone" speed="6.60" length="10.14" shape="2191.00,1380.29 2188.75,1380.68 2187.23,1382.06 2186.44,1384.40 2186.38,1387.73"/>
    </edge>
    <edge id=":11251317840_4" function="internal">
        <lane id=":11251317840_4_0" index="0" disallow="tram rail_urban rail rail_electric rail_fast ship container cable_car subway aircraft wheelchair scooter drone" speed="13.89" length="14.54" shape="2191.00,1380.29 2187.38,1380.58 2183.92,1381.49 2180.51,1382.71 2177.00,1383.91"/>
    </edge>
    <edge id=":11251317840_5" function="internal">
        <lane id=":11251317840_5_0" index="0" disallow="tram rail_urban rail rail_electric rail_fast ship container cable_car subway aircraft wheelchair scooter drone" speed="3.71" length="1.72" shape="2191.00,1380.29 2189.56,1379.83 2189.42,1379.68"/>
    </edge>
    <edge id=":11251317840_9" function="internal">
        <lane id=":11251317840_9_0" index="0" disallow="tram rail_urban rail rail_electric rail_fast ship container cable_car subway aircraft wheelchair scooter drone" speed="3.71" length="3.20" shape="2189.42,1379.68 2188.92,1379.14 2189.09,1378.21 2190.07,1377.05"/>
    </edge>
    <edge id=":11251317840_6" function="internal">
        <lane id=":11251317840_6_0" index="0" disallow="tram rail_urban rail rail_electric rail_fast ship container cable_car subway aircraft wheelchair scooter drone" speed="13.89" length="14.57" shape="2176.08,1380.84 2179.59,1379.62 2183.00,1378.34 2186.45,1377.37 2190.07,1377.05"/>
    </edge>
    <edge id=":11251317840_7" function="internal">
        <lane id=":11251317840_7_0" index="0" disallow="tram rail_urban rail rail_electric rail_fast ship container cable_car subway aircraft wheelchair scooter drone" speed="7.64" length="4.00" shape="2176.08,1380.84 2180.04,1380.24"/>
    </edge>
    <edge id=":11251317840_8" function="internal">
        <lane id=":11251317840_8_0" index="0" disallow="tram rail_urban rail rail_electric rail_fast ship container cable_car subway aircraft wheelchair scooter drone" speed="3.65" length="1.44" shape="2176.08,1380.84 2177.46,1381.26"/>
    </edge>
    <edge id=":11251317840_10" function="internal">
        <lane id=":11251317840_10_0" index="0" disallow="tram rail_urban rail rail_electric rail_fast ship container cable_car subway aircraft wheelchair scooter drone" speed="7.64" length="10.93" shape="2180.04,1380.24 2180.30,1380.20 2183.42,1381.14 2185.44,1383.65 2186.38,1387.73"/>
    </edge>
    <edge id=":11251317840_11" function="internal">
        <lane id=":11251317840_11_0" index="0" disallow="tram rail_urban rail rail_electric rail_fast ship container cable_car subway aircraft wheelchair scooter drone" speed="3.65" length="3.23" shape="2177.46,1381.26 2178.07,1381.91 2177.92,1382.80 2177.00,1383.91"/>
    </edge>
    <edge id=":11251317843_0" function="internal">
        <lane id=":11251317843_0_0" index="0" disallow="tram rail_urban rail rail_electric rail_fast ship container cable_car subway aircraft wheelchair scooter drone" speed="13.89" length="14.55" shape="2192.71,1401.52 2178.16,1401.19"/>
    </edge>
    <edge id=":11251317843_1" function="internal">
        <lane id=":11251317843_1_0" index="0" disallow="tram rail_urban rail rail_electric rail_fast ship container cable_car subway aircraft wheelchair scooter drone" speed="8.38" length="3.98" shape="2192.71,1401.52 2189.01,1400.91 2188.81,1400.79"/>
    </edge>
    <edge id=":11251317843_2" function="internal">
        <lane id=":11251317843_2_0" index="0" disallow="tram rail_urban rail rail_electric rail_fast ship container cable_car subway aircraft wheelchair scooter drone" speed="3.65" length="1.44" shape="2192.71,1401.52 2191.52,1400.70"/>
    </edge>
    <edge id=":11251317843_9" function="internal">
        <lane id=":11251317843_9_0" index="0" disallow="tram rail_urban rail rail_electric rail_fast ship container cable_car subway aircraft wheelchair scooter drone" speed="8.38" length="10.44" shape="2188.81,1400.79 2186.25,1399.19 2184.43,1396.35 2183.55,1392.39"/>
    </edge>
    <edge id=":11251317843_10" function="internal">
        <lane id=":11251317843_10_0" index="0" disallow="tram rail_urban rail rail_electric rail_fast ship container cable_car subway aircraft wheelchair scooter drone" speed="3.65" length="3.23" shape="2191.52,1400.70 2191.13,1399.90 2191.54,1399.10 2192.74,1398.32"/>
    </edge>
    <edge id=":11251317843_3" function="internal">
        <lane id=":11251317843_3_0" index="0" disallow="tram rail_urban rail rail_electric rail_fast ship container cable_car subway aircraft wheelchair scooter drone" speed="6.95" length="9.64" shape="2186.74,1392.10 2187.32,1394.80 2188.52,1396.73 2190.33,1397.91 2192.74,1398.32"/>
    </edge>
    <edge id=":11251317843_4" function="internal">
        <lane id=":11251317843_4_0" index="0" disallow="tram rail_urban rail rail_electric rail_fast ship container cable_car subway aircraft wheelchair scooter drone" speed="7.79" length="14.69" shape="2186.74,1392.10 2186.52,1396.19 2185.02,1399.07 2182.24,1400.74 2178.16,1401.19"/>
    </edge>
    <edge id=":11251317843_5" function="internal">
        <lane id=":11251317843_5_0" index="0" disallow="tram rail_urban rail rail_electric rail_fast ship container cable_car subway aircraft wheelchair scooter drone" speed="3.65" length="4.67" shape="2186.74,1392.10 2186.05,1393.37 2185.29,1393.84 2184.46,1393.51 2183.55,1392.39"/>
    </edge>
    <edge id=":11251317843_6" function="internal">
        <lane id=":11251317843_6_0" index="0" disallow="tram rail_urban rail rail_electric rail_fast ship container cable_car subway aircraft wheelchair scooter drone" speed="6.25" length="9.05" shape="2178.27,1397.99 2180.78,1397.71 2182.50,1396.69 2183.42,1394.91 2183.55,1392.39"/>
    </edge>
    <edge id=":11251317843_7" function="internal">
        <lane id=":11251317843_7_0" index="0" disallow="tram rail_urban rail rail_electric rail_fast ship container cable_car subway aircraft wheelchair scooter drone" speed="13.89" length="14.48" shape="2178.27,1397.99 2192.74,1398.32"/>
    </edge>
    <edge id=":11251317843_8" function="internal">
        <lane id=":11251317843_8_0" index="0" disallow="tram rail_urban rail rail_electric rail_fast ship container cable_car subway aircraft wheelchair scooter drone" speed="3.65" length="1.44" shape="2178.27,1397.99 2179.44,1398.83"/>
    </edge>
    <edge id=":11251317843_11" function="internal">
        <lane id=":11251317843_11_0" index="0" disallow="tram rail_urban rail rail_electric rail_fast ship container cable_car subway aircraft wheelchair scooter drone" speed="3.65" length="3.23" shape="2179.44,1398.83 2179.82,1399.64 2179.39,1400.43 2178.16,1401.19"/>
    </edge>
    <edge id=":11387390129_0" function="internal">
        <lane id=":11387390129_0_0" index="0" disallow="tram rail_urban rail rail_electric rail_fast ship container cable_car subway aircraft wheelchair scooter drone" speed="27.78" length="0.34" shape="2394.59,1270.91 2394.27,1270.98"/>
    </edge>
    <edge id=":11387390129_1" function="internal">
        <lane id=":11387390129_1_0" index="0" disallow="tram rail_urban rail rail_electric rail_fast ship container cable_car subway aircraft wheelchair scooter drone" speed="27.78" length="0.11" shape="2393.65,1267.84 2393.76,1267.82"/>
    </edge>
    <edge id=":12428711083_0" function="internal">
        <lane id=":12428711083_0_0" index="0" disallow="tram rail_urban rail rail_electric rail_fast ship container cable_car subway aircraft wheelchair scooter drone" speed="13.89" length="9.56" shape="2164.50,1060.90 2156.25,1056.08"/>
    </edge>
    <edge id=":12428711083_1" function="internal">
        <lane id=":12428711083_1_0" index="0" allow="pedestrian delivery bicycle" speed="7.57" length="2.33" shape="2164.50,1060.90 2162.72,1059.40"/>
    </edge>