<!--
 Copyright (c) 2025 Green Wave Team
 
 This software is released under the MIT License.
 https://opensource.org/licenses/MIT
-->

<?xml version="1.0" encoding="UTF-8"?>

<!-- generated on 2025-11-17 12:06:44.770458 by Eclipse SUMO randomTrips.py v1_25_0+0000-ac6c5a6752d
<configuration>
    <net-file value="quangtrung.net.xml"/>
    <output-trip-file value="trips.xml"/>
    <end value="300.0"/>
</configuration>
-->

<!-- generated on 2025-11-17T12:06:44.689372+07:00 by Eclipse SUMO duarouter 1.25.0
<duarouterConfiguration xmlns:xsi="http://www.w3.org/2001/XMLSchema-instance" xsi:noNamespaceSchemaLocation="http://sumo.dlr.de/xsd/duarouterConfiguration.xsd">

    <input>
        <net-file value="quangtrung.net.xml"/>
        <route-files value="trips.xml"/>
    </input>

    <output>
        <output-file value="routes.rou.xml"/>
        <alternatives-output value="NUL"/>
    </output>

    <time>
        <begin value="0"/>
        <end value="300.0"/>
    </time>

    <report>
        <no-warnings value="true"/>
        <ignore-errors value="true"/>
        <no-step-log value="true"/>
    </report>

</duarouterConfiguration>
-->

<routes xmlns:xsi="http://www.w3.org/2001/XMLSchema-instance" xsi:noNamespaceSchemaLocation="http://sumo.dlr.de/xsd/routes_file.xsd">
    <vehicle id="0" depart="0.00">
        <route edges="389711239#0 389711239#1 -1210927296#1 -1210927296#0"/>
    </vehicle>
    <vehicle id="1" depart="1.00">
        <route edges="-499203400 -499203396"/>
    </vehicle>
    <vehicle id="2" depart="2.00">
        <route edges="721744353#1 721744353#2 721744353#3 763519793 721952220 721740699 32584390#0 32584390#1 32584390#2 32584390#3 32584390#4 32584390#5 32584390#6 32584390#7 -241065423#2"/>
    </vehicle>
    <vehicle id="3" depart="3.00">
        <route edges="1140751917#3 -1140751917#3 241065506 -241065422#1 446047306#0 -1214362418"/>
    </vehicle>
    <vehicle id="4" depart="4.00">
        <route edges="-498751816#0 498751815#1 498751815#2 498751815#3 498751815#4 -696370375 -32586359 1177467978 478799008#3 721952221#0 721952221#1 721952222 721952223#0 721952223#1 721952223#2 721952223#3 721952223#4 32588982#0 32588982#1"/>
    </vehicle>
    <vehicle id="5" depart="5.00">
        <route edges="446047307 -241065423#0 -1140751917#5 -1140751917#4 -1140751917#3 -1140751917#2 -1140751917#1 -1140751917#0 -1140751918 1140751919 721744354 478799008#0 478799008#1 478799008#2 478799008#3 721952219 721744353#2 721744353#3 359550390#0 359550390#1 359550390#2 359550390#3 359550390#4 359550390#5 359550390#6 359550390#7"/>
    </vehicle>
    <vehicle id="6" depart="6.00">
        <route edges="612682631#2 612682628 -612682628 -612682631#2 -612682631#1 -612682631#0 32580124#2 32580124#3 32580124#4 721752830#0 721752830#1 721752830#2 721752830#3 721952218 763519793 721952220 721740699 32584390#0 32584390#1 32584390#2 32584390#3 241065422#0 241065422#1 -623480404 -1140751917#2"/>
    </vehicle>
    <vehicle id="7" depart="7.00">
        <route edges="612682631#1 -612682631#1 -612682631#0 32580124#2 32580124#3 32580124#4 721752830#0 721752830#1 721752830#2 721752830#3 721952218 721744350 32586359 498751813#0 498751813#1 499203400"/>
    </vehicle>
    <vehicle id="8" depart="8.00">
        <route edges="-612682631#2 -612682631#1 -612682631#0 32580124#2 32580124#3 32580124#4 721752830#0 721752830#1 721752830#2 721752830#3 721952218 763519793 721952220 721740699 32584390#0 32584390#1 32584390#2 32584390#3 32584390#4 32584390#5 32584390#6 32584390#7 32584390#8 -446052465#1 -446052465#0"/>
    </vehicle>
    <vehicle id="9" depart="9.00">
        <route edges="-241065423#1 -241065423#0 -1140751917#5 -1140751917#4 -1140751917#3 -1140751917#2 -1140751917#1 -1140751917#0 -1140751918 1140751919 721744354 478799008#0 478799008#1 478799008#2 478799008#3 721952221#0 721952221#1 721952222 721952223#0 721952223#1 721952223#2 721952223#3 721952223#4 32588982#0 32588982#1 -32588982#1"/>
    </vehicle>
    <vehicle id="10" depart="10.00">
        <route edges="721740699 32584390#0 32584390#1 32584390#2 32584390#3 241065422#0 241065422#1 241065422#2 241065422#3 -1140751917#0 -1140751918 1140751919 721744354 478799008#0"/>
    </vehicle>
    <vehicle id="11" depart="11.00">
        <route edges="-623480408 -1140751917#4 -1140751917#3 -1140751917#2 -1140751917#1 -1140751917#0 -1140751918 1140751919 721744354 478799008#0 478799008#1 478799008#2 478799008#3 721952221#0 721952221#1 721952222 721952223#0 721952223#1 721952223#2 721952223#3 721952223#4 32588982#0 32588982#1 32588982#2 389711238#0"/>
    </vehicle>
    <vehicle id="12" depart="12.00">
        <route edges="721740702#1 721740702#2 1269264073#0 1269264073#1 721740700#0 721740700#1 721744353#1 721744353#2 721744353#3 763519793 721952220 721740699 32584390#0 32584390#1 32584390#2 32584390#3 241065422#0 446047306#0 446047306#1"/>
    </vehicle>
    <vehicle id="13" depart="13.00">
        <route edges="-498970209#0 721752830#3 721952218 721744350 32586359 696370375 696370376#0 696370376#1 -696370376#1 -696370376#0"/>
    </vehicle>
    <vehicle id="14" depart="14.00">
        <route edges="-32586359 1177467978 478799008#3 721952219 721744353#2 721744353#3 763519793 721952220 721740699 32584390#0 32584390#1 32584390#2 32584390#3 241065422#0 241065422#1 -623480404"/>
    </vehicle>
    <vehicle id="15" depart="15.00">
        <route edges="-499203396 498751815#2 498751815#3 498751815#4 -696370375 -32586359 1177467978 478799008#3 721952221#0 721952221#1"/>
    </vehicle>
    <vehicle id="16" depart="16.00">
        <route edges="446047306#0 -1214362418 -503315192#0 241065422#1 241065422#2 241065422#3 -1140751917#0 -1140751918 1140751919 721744354 478799008#0 478799008#1 478799008#2"/>
    </vehicle>
    <vehicle id="17" depart="17.00">
        <route edges="-389711239#0 32588982#1 32588982#2 32588982#3 127163940#0"/>
    </vehicle>
    <vehicle id="18" depart="18.00">
        <route edges="817129222#6 817129222#7 721740701#1 721740702#1 721740702#2 1269264073#0 1269264073#1 721740700#0 721740700#1 721744353#1 721744353#2 721744353#3 721744350 32586359 696370375 -498751815#4 498751815#4"/>
    </vehicle>
    <vehicle id="19" depart="19.00">
        <route edges="-498970209#0 721752830#3 721952218 763519793 721952220 721740699 32584390#0 32584390#1 32584390#2 32584390#3 241065422#0 446047306#0 -1214362418"/>
    </vehicle>
    <vehicle id="20" depart="20.00">
        <route edges="-498751815#2 499203396 -498751813#1 -498751813#0 -32586359 1177467978 478799008#3 721952221#0 721952221#1 721952222 721952223#0"/>
    </vehicle>
    <vehicle id="21" depart="21.00">
        <route edges="721744351#1 -125449043#2 -125449043#1 -125449043#0 537911725#1 537911725#2 537911725#3 721744352#0 721744352#1 721952220 721740699 32584390#0 32584390#1 32584390#2 32584390#3 241065422#0 241065422#1 241065422#2 241065422#3 1140751917#1"/>
    </vehicle>
    <vehicle id="22" depart="22.00">
        <route edges="721752830#1 721752830#2 721752830#3 721952218 763519793 721952220 721740699 32584390#0 32584390#1"/>
    </vehicle>
    <vehicle id="23" depart="23.00">
        <route edges="-498972654#2 -498972654#1 -498972654#0 -498751815#4 553869181#0 553869181#1 553869181#2 -553869181#2"/>
    </vehicle>
    <vehicle id="24" depart="24.00">
        <route edges="-722007077 359550390#2 612682716 498972654#1 498972654#2 -498972654#2 -498972654#1"/>
    </vehicle>
    <vehicle id="25" depart="25.00">
        <route edges="963967760 -553869181#0 498751815#4 -696370375 -32586359 1177467978 478799008#3 721952221#0 721952221#1 721952222 721952223#0 721952223#1 721952223#2 721952223#3 721952223#4 32588982#0 32588982#1 32588982#2"/>
    </vehicle>
    <vehicle id="26" depart="26.00">
        <route edges="605469951 721744351#0 721744351#1 -125449043#2 -125449043#1 -125449043#0 537911725#1 537911725#2 537911725#3 721744352#0 721744352#1 721952220 721740699 32584390#0 32584390#1 32584390#2 32584390#3 241065422#0 241065422#1 241065422#2 241065422#3"/>
    </vehicle>
    <vehicle id="27" depart="27.00">
        <route edges="963967759 -696370376#2 -696370376#1 -696370376#0 -696370375 -32586359 1177467978 478799008#3 721952219 721744353#2 721744353#3 359550390#0 359550390#1 359550390#2"/>
    </vehicle>
    <vehicle id="28" depart="28.00">
        <route edges="817129222#1 817129222#2 817129222#3 817129222#4 817129222#5 817129222#6 817129222#7 721740701#1 721740702#1"/>
    </vehicle>
    <vehicle id="29" depart="29.00">
        <route edges="-1140751917#3 -1140751917#2 -1140751917#1 -1140751917#0 -1140751918 1140751919 721744354 478799008#0 478799008#1 478799008#2 478799008#3 721952219 537911726 721744351#0 721744351#1 -125449043#2 -125449043#1 -125449043#0 537911725#1 537911725#2"/>
    </vehicle>
    <vehicle id="30" depart="30.00">
        <route edges="478799008#1 478799008#2 478799008#3 721952219 721744353#2 721744353#3 359550390#0 359550390#1 359550390#2 359550390#3 359550390#4 359550390#5"/>
    </vehicle>
    <vehicle id="31" depart="31.00">
        <route edges="-499203396 498751815#2 498751815#3 498751815#4"/>
    </vehicle>
    <vehicle id="32" depart="32.00">
        <route edges="1214362418 -446047306#0 -241065422#0 32584390#4 32584390#5 -226512046 817129222#6 817129222#7 721740701#1 721740702#1 721740702#2 1269264073#0 1269264073#1 721740700#0 721740700#1 721952221#1 721952222 721952223#0 721952223#1 721952223#2 721952223#3"/>
    </vehicle>
    <vehicle id="33" depart="33.00">
        <route edges="721744351#1 -125449043#2 -125449043#1 -125449043#0 537911725#1 537911725#2 537911725#3 721744352#0 721744353#3 721744350 32586359 696370375 498972654#0 -612682716"/>
    </vehicle>
    <vehicle id="34" depart="34.00">
        <route edges="226512046 -226512046 817129222#6 817129222#7 721740701#1 721740702#1 721740702#2 1269264073#0 1269264073#1 721740700#0 721740700#1 721744353#1 721744353#2 721744353#3 721744350 32586359 696370375 -498751815#4 -498751815#3 -498751815#2"/>
    </vehicle>
    <vehicle id="35" depart="35.00">
        <route edges="721752830#1 721752830#2 721752830#3 721952218 721744350 1177467978 478799008#3 721952219 537911726 721744351#0"/>
    </vehicle>
    <vehicle id="36" depart="36.00">
        <route edges="-551587449 -551587446#1 -551587446#0 -447331266#0 817129222#5 817129222#6 817129222#7 721740701#1 721740702#1 721740702#2 1269264073#0 1269264073#1 721740700#0 721740700#1 721744353#1 721744353#2 721744353#3 721744350 32586359 498751813#0 498751813#1 -499203396 498751815#2 498751815#3"/>
    </vehicle>
    <vehicle id="37" depart="37.00">
        <route edges="359550390#1 -359550390#1 -359550390#0 763519793 721952220 721740699 32584390#0 32584390#1 32584390#2 32584390#3 32584390#4 32584390#5 32584390#6 32584390#7 32584390#8 -446052465#1 -446052465#0"/>
    </vehicle>
    <vehicle id="38" depart="38.00">
        <route edges="537911725#1 537911725#2 537911725#3 721744352#0 721744353#3 359550390#0 359550390#1 359550390#2 359550390#3 359550390#4 359550390#5 359550390#6"/>
    </vehicle>
    <vehicle id="39" depart="39.00">
        <route edges="551587446#1 551587446#2 -551587446#2 -551587446#1 -551587446#0 -447331266#0 817129222#5 817129222#6 817129222#7 721740701#1 721740702#1 721740702#2 1269264073#0 1269264073#1 721740700#0 721740700#1 721744353#1 721744353#2 721744353#3 359550390#0 359550390#1 359550390#2 359550390#3"/>
    </vehicle>
    <vehicle id="40" depart="40.00">
        <route edges="-1140751917#0 -1140751918 1140751918 1140751917#0 1140751917#1 1140751917#2 1140751917#3 1140751917#4"/>
    </vehicle>
    <vehicle id="41" depart="41.00">
        <route edges="-1140751917#5 -1140751917#4 -1140751917#3 -1140751917#2 -1140751917#1 -1140751917#0 -1140751918 1140751919 721744354 478799008#0 478799008#1 478799008#2 478799008#3 721952219 721744353#2 721744353#3 763519793 721952220"/>
    </vehicle>
    <vehicle id="42" depart="42.00">
        <route edges="-241065422#3 -241065422#2 -241065422#1 -241065422#0 32584390#4 32584390#5 32584390#6"/>
    </vehicle>
    <vehicle id="43" depart="43.00">
        <route edges="537911725#2 537911725#3 721744352#0 721744353#3 359550390#0 359550390#1 359550390#2 359550390#3 359550390#4 359550390#5 359550390#6 359550390#7 359550390#8 359550390#9 -359550390#9 -359550390#8 -359550390#7"/>
    </vehicle>
    <vehicle id="44" depart="44.00">
        <route edges="-498972654#2 -498972654#1 -498972654#0 -696370375 -32586359 1177467978 478799008#3 721952219 537911726 721744351#0"/>
    </vehicle>
    <vehicle id="45" depart="45.00">
        <route edges="1140751917#4 -1140751917#4 -1140751917#3 -1140751917#2 -1140751917#1 -1140751917#0 -1140751918 1140751919 721744354 478799008#0 478799008#1 478799008#2 478799008#3 721952219 537911726 721744351#0 721744351#1 -125449043#2 498970222#0 498970222#1 -498970222#1 -498970222#0"/>
    </vehicle>
    <vehicle id="46" depart="46.00">
        <route edges="-498751813#1 -498751813#0 -32586359 1177467978 478799008#3 721952219 721744353#2 721744353#3 763519793 721952220 721740699 32584390#0 32584390#1 32584390#2 32584390#3 241065422#0 241065422#1 241065422#2 241065422#3 1140751917#1"/>
    </vehicle>
    <vehicle id="47" depart="47.00">
        <route edges="963967759 -963967759 553869181#2 498751816#2"/>
    </vehicle>
    <vehicle id="48" depart="48.00">
        <route edges="-498970209#0 721752830#3 721952218 721744350 32586359 696370375 498972654#0 498972654#1 498972654#2 -498972654#2 -498972654#1"/>
    </vehicle>
    <vehicle id="49" depart="49.00">
        <route edges="-498970209#0 721752830#3 721952218 763519793 721952220 721740699 32584390#0 32584390#1 32584390#2 32584390#3 241065422#0 241065422#1 241065422#2 241065422#3 -1140751917#0 -1140751918 1140751919 1140751920 473028082 721745734"/>
    </vehicle>
    <vehicle id="50" depart="50.00">
        <route edges="721740701#1 -478757376 32584390#2 32584390#3 241065422#0 241065422#1 -241065422#1"/>
    </vehicle>
    <vehicle id="51" depart="51.00">
        <route edges="-498751815#3 -498751815#2 498751815#2 498751815#3 498751815#4 498972654#0 -612682716 359550390#3 359550390#4 359550390#5 359550390#6 359550390#7 359550390#8 359550390#9 -359550390#9 -359550390#8"/>
    </vehicle>
    <vehicle id="52" depart="52.00">
        <route edges="612682631#1 -612682631#1 -612682631#0 32580124#2 32580124#3 32580124#4 721752830#0 721752830#1 721752830#2 721752830#3 721952218 721744350 32586359 696370375 696370376#0 696370376#1 696370376#2 696370376#3 -498751816#2 -498751816#1 -498751816#0"/>
    </vehicle>
    <vehicle id="53" depart="53.00">
        <route edges="-241065423#2 -241065423#1 241065423#1"/>
    </vehicle>
    <vehicle id="54" depart="54.00">
        <route edges="1140751917#4 1140751917#5 241065423#0 241065423#1 241065423#2 32584390#8 32584390#9 32584390#10 32584390#11"/>
    </vehicle>
    <vehicle id="55" depart="55.00">
        <route edges="817129222#5 817129222#6 817129222#7 721740701#1 721740702#1 721740702#2 1269264073#0 1269264073#1 721740700#0 721740700#1 721952221#1 721952222 721952223#0 721952223#1 721952223#2 721952223#3 721952223#4 32588982#0 32588982#1 32588982#2 -32588982#2"/>
    </vehicle>
    <vehicle id="56" depart="56.00">
        <route edges="-963967759 -553869181#1 -553869181#0 498751815#4 -696370375 -32586359 1177467978"/>
    </vehicle>
    <vehicle id="57" depart="57.00">
        <route edges="721740702#1 721740702#2 1269264073#0 1269264073#1 721740700#0 721740700#1 721952221#1 721952222 721952223#0 721952223#1 721952223#2 721952223#3 721952223#4 32588982#0 32588982#1 -611041162"/>
    </vehicle>
    <vehicle id="58" depart="58.00">
        <route edges="1140751917#3 -1140751917#3 -1140751917#2 -1140751917#1 -241065422#3 -241065422#2 -623480404"/>
    </vehicle>
    <vehicle id="59" depart="59.00">
        <route edges="963967760 -553869181#0 498751815#4 696370376#0"/>
    </vehicle>
    <vehicle id="60" depart="60.00">
        <route edges="817129222#0 817129222#1 817129222#2 817129222#3 817129222#4 817129222#5 817129222#6 817129222#7 721740701#1 721740702#1 721740702#2 1269264073#0 1269264073#1 721740700#0 721740700#1 721744353#1 721744353#2 721744353#3 721744350 1177467978 478799008#3 721952219"/>
    </vehicle>
    <vehicle id="61" depart="61.00">
        <route edges="721740699 32584390#0 32584390#1 478757376 721740702#1 721740702#2 1269264073#0 1269264073#1 721740700#0 721740700#1 721744353#1 721744353#2 721744353#3 721744350 32586359 498751813#0 498751813#1 -498751813#1 -498751813#0"/>
    </vehicle>
    <vehicle id="62" depart="62.00">
        <route edges="125449043#0 125449043#1 -125449043#1 -125449043#0 537911725#1 537911725#2 537911725#3 721744352#0 721744352#1 721952220 721740699 32584390#0 32584390#1 32584390#2 32584390#3 241065422#0 241065422#1 241065422#2 241065422#3"/>
    </vehicle>
    <vehicle id="63" depart="63.00">
        <route edges="-359550390#9 -359550390#8 -359550390#7 -359550390#6 -359550390#5 -359550390#4 -359550390#3 -359550390#2 -359550390#1 -359550390#0 721744350 32586359 696370375 696370376#0 696370376#1 696370376#2 -696370376#2"/>
    </vehicle>
    <vehicle id="64" depart="64.00">
        <route edges="817129222#0 817129222#1 817129222#2 817129222#3 817129222#4 817129222#5 226512046 32584390#6 32584390#7 -241065423#2 -241065423#1 -241065423#0 -1140751917#5 446047307"/>
    </vehicle>
    <vehicle id="65" depart="65.00">
        <route edges="32580124#2 32580124#3 32580124#4 721752830#0 721752830#1 721752830#2 721752830#3 721952218 721744350 32586359 696370375 -498751815#4 553869181#0 553869181#1"/>
    </vehicle>
    <vehicle id="66" depart="66.00">
        <route edges="226512046 -226512046 817129222#6 817129222#7 721740701#1 721740702#1 721740702#2 1269264073#0 1269264073#1 721740700#0"/>
    </vehicle>
    <vehicle id="67" depart="67.00">
        <route edges="-389711238#0 -32588982#2 -32588982#1 -32588982#0 721952223#5"/>
    </vehicle>
    <vehicle id="68" depart="68.00">
        <route edges="-241065422#1 -241065422#0 32584390#4 32584390#5 -226512046 817129222#6 817129222#7 721740701#1 721740702#1 721740702#2 1269264073#0 1269264073#1 721740700#0 721740700#1 721744353#1 721744353#2 721744353#3 721744350 32586359 696370375 -498751815#4"/>
    </vehicle>
    <vehicle id="69" depart="69.00">
        <route edges="-498970209#2 -498970209#1 -498970209#0 721752830#3 721952218 359550390#0 359550390#1 359550390#2 359550390#3 359550390#4 -359550390#4"/>
    </vehicle>
    <vehicle id="70" depart="70.00">
        <route edges="721744353#1 721744353#2 721744353#3 721744350 32586359 696370375 696370376#0 696370376#1 696370376#2 696370376#3 -498751816#2 -553869181#2"/>
    </vehicle>
    <vehicle id="71" depart="71.00">
        <route edges="1140751917#3 -1140751917#3 -1140751917#2 446052459"/>
    </vehicle>
    <vehicle id="72" depart="72.00">
        <route edges="241065423#1 241065423#2 -241065423#2 -241065423#1 -241065423#0 -1140751917#5 -1140751917#4 -1140751917#3 -1140751917#2 -1140751917#1 -1140751917#0 -1140751918 1140751919 721744354 478799008#0 478799008#1 478799008#2 478799008#3 721952221#0"/>
    </vehicle>
    <vehicle id="73" depart="73.00">
        <route edges="-498751813#2 -498751813#1 -498751813#0 -32586359 1177467978 478799008#3 721952219 537911726 721744351#0 721744351#1 -125449043#2 -125449043#1 -125449043#0 537911725#1"/>
    </vehicle>
    <vehicle id="74" depart="74.00">
        <route edges="-226512046 817129222#6 817129222#7 721740701#1 721740702#1 721740702#2 1269264073#0 1269264073#1 721740700#0 721740700#1 721744353#1 721744353#2 721744353#3 763519793 721952220 721740699 32584390#0 32584390#1"/>
    </vehicle>
    <vehicle id="75" depart="75.00">
        <route edges="963967760 553869181#1 963967759"/>
    </vehicle>
    <vehicle id="76" depart="76.00">
        <route edges="-226512046 817129222#6 817129222#7 721740701#1 721740702#1 721740702#2 1269264073#0 1269264073#1 721740700#0 721740700#1 721744353#1 537911726 721744351#0 721744351#1 -125449043#2 498970222#0 498970222#1 -498970222#1 -498970222#0"/>
    </vehicle>
    <vehicle id="77" depart="77.00">
        <route edges="-498972654#2 -498972654#1 -498972654#0 -696370375 -32586359 1177467978 478799008#3 721952221#0"/>
    </vehicle>
    <vehicle id="78" depart="78.00">
        <route edges="696370375 -696370375 -32586359 1177467978 478799008#3 721952221#0 721952221#1 721952222 721952223#0 499207229"/>
    </vehicle>
    <vehicle id="79" depart="79.00">
        <route edges="359550390#2 -359550390#2 -359550390#1 -359550390#0 763519793 721952220 721740699 32584390#0 32584390#1 32584390#2 32584390#3 32584390#4 32584390#5 -226512046 817129222#6"/>
    </vehicle>
    <vehicle id="80" depart="80.00">
        <route edges="446052461 -1140751917#3 -1140751917#2"/>
    </vehicle>
    <vehicle id="81" depart="81.00">
        <route edges="612682722#0 612682725 -612682725 -612682722#0 -359550390#5 -359550390#4 -359550390#3 612682716 -498972654#0 -498751815#4 553869181#0 553869181#1 553869181#2 498751816#2 -696370376#3"/>
    </vehicle>
    <vehicle id="82" depart="82.00">
        <route edges="446052465#1 -446052465#1 623480410 -241065423#1 -241065423#0 -1140751917#5 -1140751917#4 -1140751917#3 -1140751917#2 -1140751917#1 -1140751917#0 -1140751918 1140751919 721744354 478799008#0 478799008#1 478799008#2 478799008#3 721952221#0 721952221#1 721952222"/>
    </vehicle>
    <vehicle id="83" depart="83.00">
        <route edges="-359550390#3"/>
    </vehicle>
    <vehicle id="84" depart="84.00">
        <route edges="-32588982#0 32588982#0 32588982#1 32588982#2 389711238#0"/>
    </vehicle>
    <vehicle id="85" depart="85.00">
        <route edges="-499203398 498751816#1 -553869181#2 -553869181#1 -553869181#0 498751815#4 498972654#0 -612682716 -359550390#2 -359550390#1 -359550390#0 763519793 721952220 721740699 32584390#0 32584390#1 32584390#2 32584390#3 241065422#0 241065422#1 241065422#2 241065422#3 -1140751917#0 -1140751918 1140751919 721744354 478799008#0 478799008#1"/>
    </vehicle>
    <vehicle id="86" depart="86.00">
        <route edges="696370376#3 -498751816#2 -553869181#2 -553869181#1 -553869181#0 498751815#4 -696370375 -32586359 1177467978 478799008#3 721952221#0 721952221#1 721952222 721952223#0 721952223#1 721952223#2 721952223#3 721952223#4 32588982#0 -32588982#0"/>
    </vehicle>
    <vehicle id="87" depart="87.00">
        <route edges="1140751917#4 -1140751917#4 -1140751917#3 -1140751917#2 -1140751917#1 -241065422#3 -241065422#2 -623480404"/>
    </vehicle>
    <vehicle id="88" depart="88.00">
        <route edges="498972654#0 -612682716 359550390#3 359550390#4 359550390#5 359550390#6 359550390#7 359550390#8 359550390#9"/>
    </vehicle>
    <vehicle id="89" depart="89.00">
        <route edges="1140751917#5 -1140751917#5 -1140751917#4 -1140751917#3 -1140751917#2"/>
    </vehicle>
    <vehicle id="90" depart="90.00">
        <route edges="-241065422#0 32584390#4 32584390#5 -226512046 817129222#6 817129222#7 721740701#1 721740702#1 721740702#2 1269264073#0 1269264073#1 721740700#0 721740700#1 721744353#1 537911726 721744351#0 721744351#1 721744351#2 721744351#3"/>
    </vehicle>
    <vehicle id="91" depart="91.00">
        <route edges="696370376#0 696370376#1 -696370376#1 -696370376#0 498972654#0 -612682716 -359550390#2 -359550390#1 -359550390#0 763519793 721952220 721740699 32584390#0 32584390#1 32584390#2 32584390#3 241065422#0 241065422#1 241065422#2 241065422#3 1140751917#1 446052459"/>
    </vehicle>
    <vehicle id="92" depart="92.00">
        <route edges="-359550390#7"/>
    </vehicle>
    <vehicle id="93" depart="93.00">
        <route edges="-553869181#1 -553869181#0 498751815#4 -696370375 -32586359 1177467978 478799008#3 721952219 721744353#2 721744353#3"/>
    </vehicle>
    <vehicle id="94" depart="94.00">
        <route edges="553869181#0 -963967760 -696370376#1 -696370376#0 -696370375 -32586359 1177467978 478799008#3 721952219 537911726 721744351#0 721744351#1 -125449043#2 -125449043#1 -125449043#0 537911725#1 537911725#2 537911725#3 721744352#0"/>
    </vehicle>
    <vehicle id="95" depart="95.00">
        <route edges="-963967760 -696370376#1 -696370376#0 -696370375 498751813#0"/>
    </vehicle>
    <vehicle id="96" depart="96.00">
        <route edges="-359550390#9 -359550390#8 -359550390#7 -359550390#6 -359550390#5 -359550390#4 -359550390#3 -359550390#2 -359550390#1 -359550390#0 763519793 721952220"/>
    </vehicle>
    <vehicle id="97" depart="97.00">
        <route edges="612682631#2 612682628 -612682628 -612682631#2 -612682631#1 -612682631#0 32580124#2 32580124#3 32580124#4 537911725#0 125449043#0 125449043#1 125449043#2 721744351#2 721744351#3"/>
    </vehicle>
    <vehicle id="98" depart="98.00">
        <route edges="-612682631#0 32580124#2 32580124#3 32580124#4 721752830#0 721752830#1 721752830#2 721752830#3 721952218 763519793 721952220"/>
    </vehicle>
    <vehicle id="99" depart="99.00">
        <route edges="612682631#0 612682631#1 -612682631#1 -612682631#0 32580124#2 32580124#3 32580124#4 721752830#0 721752830#1 721752830#2 721752830#3 721952218 763519793 721952220 721740699 32584390#0 32584390#1 478757376 721740702#1 721740702#2"/>
    </vehicle>
    <vehicle id="100" depart="100.00">
        <route edges="612682631#2 612682628 -612682628 -612682631#2 -612682631#1 -612682631#0 32580124#2 32580124#3 32580124#4 721752830#0 721752830#1 721752830#2 721752830#3 721952218 359550390#0 359550390#1 359550390#2 359550390#3 359550390#4 359550390#5 612682722#0 612682725 -612682725 -612682722#0"/>
    </vehicle>
    <vehicle id="101" depart="101.00">
        <route edges="553869181#2 -553869181#2 -553869181#1 -553869181#0 498751815#4 498972654#0 -612682716 -359550390#2 -359550390#1"/>
    </vehicle>
    <vehicle id="102" depart="102.00">
        <route edges="721744351#0 721744351#1 -125449043#2 -125449043#1 -125449043#0 537911725#1 537911725#2 537911725#3 721744352#0 721744352#1 721952220 721740699 32584390#0 32584390#1 32584390#2 32584390#3 32584390#4 32584390#5 -226512046 817129222#6 817129222#7 721740701#1"/>
    </vehicle>
    <vehicle id="103" depart="103.00">
        <route edges="125449043#1 -125449043#1 -125449043#0 537911725#1 537911725#2 537911725#3 721744352#0 721744353#3 721744350 32586359 696370375 696370376#0 696370376#1 696370376#2 -963967759"/>
    </vehicle>
    <vehicle id="104" depart="104.00">
        <route edges="605469953 32584390#0 32584390#1 32584390#2 32584390#3 241065422#0 241065422#1 241065422#2 241065422#3 -1140751917#0 -505444391"/>
    </vehicle>
    <vehicle id="105" depart="105.00">
        <route edges="-612682628 -612682631#2 -612682631#1 -612682631#0 32580124#2 32580124#3 32580124#4 721752830#0 721752830#1 721752830#2 721752830#3 721952218 763519793 721952220 721740699 32584390#0 32584390#1 478757376 721740702#1 721740702#2"/>
    </vehicle>
    <vehicle id="106" depart="106.00">
        <route edges="817129222#4 817129222#5 817129222#6 817129222#7 721740701#1 721740702#1 721740702#2 1269264073#0 1269264073#1 721740700#0 721740700#1 721744353#1 721744353#2 721744353#3 359550390#0 359550390#1 359550390#2 359550390#3 359550390#4 359550390#5"/>
    </vehicle>
    <vehicle id="107" depart="107.00">
        <route edges="817129222#0 817129222#1 817129222#2 817129222#3 817129222#4 817129222#5 817129222#6 817129222#7 721740701#1 721740702#1 721740702#2 1269264073#0 1269264073#1 721740700#0 721740700#1 721744353#1 721744353#2 721744353#3 721744350 32586359 696370375 -498751815#4 -498751815#3 -498751815#2 -498751815#1"/>
    </vehicle>
    <vehicle id="108" depart="108.00">
        <route edges="763519793 721952220 721740699 32584390#0 32584390#1 478757376 721740702#1 721740702#2 1269264073#0 1269264073#1 721740700#0 721740700#1 721744353#1 721744353#2 721744353#3 721744350 32586359 696370375 498972654#0 -612682716"/>
    </vehicle>
    <vehicle id="109" depart="109.00">
        <route edges="498970209#1 498970209#2 -498970209#2 -498970209#1 -498970209#0 721752830#3 721952218 763519793 721952220 721740699 32584390#0 32584390#1 32584390#2 32584390#3 241065422#0 241065422#1 241065422#2 241065422#3 1140751917#1"/>
    </vehicle>
    <vehicle id="110" depart="110.00">
        <route edges="359550390#0 359550390#1 -359550390#1 -359550390#0 721744350 1177467978 478799008#3 721952221#0 721952221#1 721952222 721952223#0 721952223#1 721952223#2 721952223#3 721952223#4 32588982#0 32588982#1 32588982#2 32588982#3"/>
    </vehicle>
    <vehicle id="111" depart="111.00">
        <route edges="-696370375 -32586359 1177467978 478799008#3 721952219 721744353#2 721744353#3 763519793 721952220 721740699 32584390#0 32584390#1 32584390#2 32584390#3 241065422#0 446047306#0 446047306#1"/>
    </vehicle>
    <vehicle id="112" depart="112.00">
        <route edges="-498970222#1 -498970222#0 -125449043#1 -125449043#0 537911725#1 537911725#2 537911725#3 721744352#0 721744352#1 721952220 721740699 32584390#0 32584390#1 32584390#2 32584390#3 241065422#0 503315192#0 503315192#1"/>
    </vehicle>
    <vehicle id="113" depart="113.00">
        <route edges="-1140751917#0 -1140751918 1140751919 721744354 478799008#0 478799008#1 478799008#2 478799008#3 721952219"/>
    </vehicle>
    <vehicle id="114" depart="114.00">
        <route edges="32580124#1 32580124#2 32580124#3 32580124#4 537911725#0 537911725#1 537911725#2"/>
    </vehicle>
    <vehicle id="115" depart="115.00">
        <route edges="446052465#1 -446052465#1 623480410 -241065423#1 -241065423#0 -1140751917#5 -1140751917#4 -1140751917#3 -1140751917#2 -1140751917#1 -1140751917#0 -1140751918 1140751918"/>
    </vehicle>
    <vehicle id="116" depart="116.00">
        <route edges="498751816#1 498751816#2 -696370376#3"/>
    </vehicle>
    <vehicle id="117" depart="117.00">
        <route edges="-553869181#2 -553869181#1 -553869181#0 498751815#4 498972654#0 -612682716 -359550390#2 -359550390#1 -359550390#0 763519793 721952220 721740699 32584390#0 32584390#1 32584390#2 32584390#3 32584390#4 32584390#5 -226512046 226512046"/>
    </vehicle>