<additional>
    <vType id="car" emissionClass="HBEFA3/PC_G_EU4" /> 
    
    <vType id="bus" emissionClass="HBEFA3/HDV_D_EU5" />
    
</additional>