<?xml version="1.0" encoding="UTF-8"?>

<!-- generated on 2025-11-16T20:26:49.123268+07:00 by Eclipse SUMO netedit 1.25.0
<neteditConfiguration xmlns:xsi="http://www.w3.org/2001/XMLSchema-instance" xsi:noNamespaceSchemaLocation="http://sumo.dlr.de/xsd/neteditConfiguration.xsd">

    <input>
        <sumocfg-file value="/home/thaianh/Sumo/2025-11-16-19-59-52/osm.net.xml"/>
        <additional-files value="/home/thaianh/Sumo/2025-11-16-19-59-52/osm.poly.xml.gz,/home/thaianh/Sumo/2025-11-16-19-59-52/output.add.xml"/>
        <route-files value="/home/thaianh/Sumo/2025-11-16-19-59-52/osm.passenger.trips.xml"/>
        <sumo-net-file value="/home/thaianh/Sumo/2025-11-16-15-08-36/RL.net.xml"/>
        <node-files value="/home/thaianh/Sumo/2025-11-16-15-08-36/RL.net.nod.xml"/>
        <edge-files value="/home/thaianh/Sumo/2025-11-16-15-08-36/RL.net.edg.xml"/>
        <connection-files value="/home/thaianh/Sumo/2025-11-16-15-08-36/RL.net.con.xml"/>
        <tllogic-files value="/home/thaianh/Sumo/2025-11-16-15-08-36/RL.net.tll.xml"/>
        <type-files value="/home/thaianh/Sumo/2025-11-16-15-08-36/RL.net.typ.xml"/>
    </input>

    <output>
        <output-file value="/home/thaianh/Sumo/2025-11-16-15-08-36/RL.net.xml"/>
        <output.street-names value="true"/>
    </output>

    <processing>
        <geometry.min-radius.fix.railways value="false"/>
        <geometry.avoid-overlap value="false"/>
        <geometry.max-grade.fix value="false"/>
        <offset.disable-normalization value="true"/>
        <lefthand value="0"/>
    </processing>

    <junctions>
        <no-turnarounds value="true"/>
        <junctions.corner-detail value="5"/>
        <junctions.limit-turn-speed value="5.50"/>
        <rectangular-lane-cut value="0"/>
    </junctions>

    <pedestrian>
        <walkingareas value="0"/>
    </pedestrian>

</neteditConfiguration>
-->

<net version="1.20" junctionCornerDetail="5" limitTurnSpeed="5.50" avoidOverlap="0" xmlns:xsi="http://www.w3.org/2001/XMLSchema-instance" xsi:noNamespaceSchemaLocation="http://sumo.dlr.de/xsd/net_file.xsd">

    <location netOffset="-679109.68,-1199108.34" convBoundary="0.00,0.00,400.22,284.60" origBoundary="106.638478,10.843040,106.642135,10.845621" projParameter="+proj=utm +zone=48 +ellps=WGS84 +datum=WGS84 +units=m +no_defs"/>

    <type id="highway.primary" priority="12" numLanes="2" speed="27.78" disallow="tram rail_urban rail rail_electric rail_fast ship container cable_car subway aircraft wheelchair scooter drone" oneway="0"/>
    <type id="highway.primary_link" priority="7" numLanes="1" speed="22.22" disallow="tram rail_urban rail rail_electric rail_fast ship container cable_car subway aircraft wheelchair scooter drone" oneway="0"/>
    <type id="highway.residential" priority="3" numLanes="1" speed="13.89" disallow="tram rail_urban rail rail_electric rail_fast ship container cable_car subway aircraft wheelchair scooter drone" oneway="0"/>
    <type id="highway.secondary" priority="11" numLanes="1" speed="27.78" disallow="tram rail_urban rail rail_electric rail_fast ship container cable_car subway aircraft wheelchair scooter drone" oneway="0"/>
    <type id="highway.service" priority="1" numLanes="1" speed="5.56" allow="pedestrian delivery bicycle" oneway="0"/>

    <edge id=":10724721419_0" function="internal">
        <lane id=":10724721419_0_0" index="0" allow="pedestrian delivery bicycle" speed="3.65" length="4.67" shape="58.42,50.96 59.78,50.47 60.66,50.62 61.07,51.42 61.00,52.86"/>
    </edge>
    <edge id=":10724732120_0" function="internal">
        <lane id=":10724732120_0_0" index="0" allow="pedestrian delivery bicycle" speed="3.65" length="4.67" shape="78.17,158.61 76.73,158.67 75.94,158.26 75.79,157.38 76.29,156.03"/>
    </edge>
    <edge id=":11050336662_0" function="internal">
        <lane id=":11050336662_0_0" index="0" allow="pedestrian delivery bicycle" speed="3.25" length="1.55" shape="199.23,248.84 198.75,248.82 198.40,248.93 198.18,249.17 198.09,249.53"/>
    </edge>
    <edge id=":11050336662_1" function="internal">
        <lane id=":11050336662_1_0" index="0" allow="pedestrian delivery bicycle" speed="5.56" length="5.49" shape="199.23,248.84 193.98,247.25"/>
    </edge>
    <edge id=":11050336662_2" function="internal">
        <lane id=":11050336662_2_0" index="0" allow="pedestrian delivery bicycle" speed="3.65" length="4.67" shape="199.23,248.84 198.16,247.87 197.88,247.02 198.39,246.29 199.69,245.67"/>
    </edge>
    <edge id=":11050336662_3" function="internal">
        <lane id=":11050336662_3_0" index="0" allow="pedestrian delivery bicycle" speed="5.56" length="3.68" shape="196.54,243.98 197.11,244.60 197.83,245.10 198.69,245.45 199.69,245.67"/>
    </edge>
    <edge id=":11050336662_4" function="internal">
        <lane id=":11050336662_4_0" index="0" allow="pedestrian delivery bicycle" speed="5.56" length="5.97" shape="196.54,243.98 197.51,245.43 198.01,246.55 198.15,247.78 198.09,249.53"/>
    </edge>
    <edge id=":11050336662_5" function="internal">
        <lane id=":11050336662_5_0" index="0" allow="pedestrian delivery bicycle" speed="5.17" length="6.07" shape="196.54,243.98 197.13,245.75 196.90,246.89 195.85,247.39 193.98,247.25"/>
    </edge>
    <edge id=":11050336662_6" function="internal">
        <lane id=":11050336662_6_0" index="0" allow="pedestrian delivery bicycle" speed="3.59" length="2.77" shape="194.89,249.38 194.89,248.26 194.74,247.54 194.44,247.20 193.98,247.25"/>
    </edge>
    <edge id=":11050336662_7" function="internal">
        <lane id=":11050336662_7_0" index="0" allow="pedestrian delivery bicycle" speed="5.56" length="7.05" shape="194.89,249.38 195.29,247.52 196.22,246.28 197.69,245.66 199.69,245.67"/>
    </edge>
    <edge id=":11050336662_8" function="internal">
        <lane id=":11050336662_8_0" index="0" allow="pedestrian delivery bicycle" speed="3.65" length="4.67" shape="194.89,249.38 195.75,248.22 196.57,247.86 197.35,248.30 198.09,249.53"/>
    </edge>
    <edge id=":11050336663_0" function="internal">
        <lane id=":11050336663_0_0" index="0" allow="pedestrian delivery bicycle" speed="5.56" length="4.18" shape="217.90,284.00 217.30,282.92 216.79,282.22 216.13,281.68 215.06,281.08"/>
    </edge>
    <edge id=":11050336663_1" function="internal">
        <lane id=":11050336663_1_0" index="0" allow="pedestrian delivery bicycle" speed="5.56" length="6.57" shape="217.90,284.00 217.04,282.28 216.67,280.97 216.72,279.61 217.15,277.73"/>
    </edge>
    <edge id=":11050336663_2" function="internal">
        <lane id=":11050336663_2_0" index="0" allow="pedestrian delivery bicycle" speed="3.65" length="4.67" shape="217.90,284.00 218.04,282.56 218.55,281.83 219.44,281.80 220.72,282.48"/>
    </edge>
    <edge id=":11050336663_3" function="internal">
        <lane id=":11050336663_3_0" index="0" allow="pedestrian delivery bicycle" speed="5.56" length="4.13" shape="220.25,278.55 219.98,279.72 219.94,280.58 220.18,281.40 220.72,282.48"/>
    </edge>
    <edge id=":11050336663_4" function="internal">
        <lane id=":11050336663_4_0" index="0" allow="pedestrian delivery bicycle" speed="5.43" length="6.99" shape="220.25,278.55 219.47,280.43 218.35,281.48 216.88,281.70 215.06,281.08"/>
    </edge>
    <edge id=":11050336663_5" function="internal">
        <lane id=":11050336663_5_0" index="0" allow="pedestrian delivery bicycle" speed="3.65" length="4.67" shape="220.25,278.55 219.17,279.50 218.29,279.69 217.62,279.10 217.15,277.73"/>
    </edge>
    <edge id=":11050336663_6" function="internal">
        <lane id=":11050336663_6_0" index="0" allow="pedestrian delivery bicycle" speed="5.56" length="0.94" shape="216.54,278.24 216.74,278.29 216.90,278.23 217.04,278.04 217.15,277.73"/>
    </edge>
    <edge id=":11050336663_7" function="internal">
        <lane id=":11050336663_7_0" index="0" allow="pedestrian delivery bicycle" speed="5.56" length="6.11" shape="216.54,278.24 218.11,279.12 219.09,279.90 219.84,280.91 220.72,282.48"/>
    </edge>
    <edge id=":11050336663_8" function="internal">
        <lane id=":11050336663_8_0" index="0" allow="pedestrian delivery bicycle" speed="3.65" length="4.67" shape="216.54,278.24 217.23,279.51 217.22,280.40 216.49,280.93 215.06,281.08"/>
    </edge>
    <edge id=":11283253687_0" function="internal">
        <lane id=":11283253687_0_0" index="0" allow="pedestrian delivery bicycle" speed="3.65" length="4.67" shape="29.91,169.22 28.47,169.15 27.72,168.67 27.65,167.78 28.27,166.48"/>
    </edge>
    <edge id=":11773323802_0" function="internal">
        <lane id=":11773323802_0_0" index="0" disallow="tram rail_urban rail rail_electric rail_fast ship container cable_car subway aircraft wheelchair scooter drone" speed="3.65" length="4.67" shape="103.28,10.84 103.36,9.40 103.85,8.65 104.74,8.59 106.04,9.22"/>
    </edge>
    <edge id=":366426832_0" function="internal">
        <lane id=":366426832_0_0" index="0" disallow="tram rail_urban rail rail_electric rail_fast ship container cable_car subway aircraft wheelchair scooter drone" speed="9.85" length="9.33" shape="183.77,127.48 186.24,127.81 188.56,127.67 190.72,127.06 192.72,125.98"/>
    </edge>
    <edge id=":366426832_1" function="internal">
        <lane id=":366426832_1_0" index="0" disallow="tram rail_urban rail rail_electric rail_fast ship container cable_car subway aircraft wheelchair scooter drone" speed="27.78" length="8.35" shape="185.82,130.69 192.72,125.98"/>
        <lane id=":366426832_1_1" index="1" disallow="tram rail_urban rail rail_electric rail_fast ship container cable_car subway aircraft wheelchair scooter drone" speed="27.78" length="8.35" shape="187.63,133.34 194.52,128.62"/>
    </edge>
    <edge id=":366471007_0" function="internal">
        <lane id=":366471007_0_0" index="0" disallow="tram rail_urban rail rail_electric rail_fast ship container cable_car subway aircraft wheelchair scooter drone" speed="27.78" length="15.00" shape="160.90,108.10 153.45,95.08"/>
    </edge>
    <edge id=":366471007_1" function="internal">
        <lane id=":366471007_1_0" index="0" disallow="tram rail_urban rail rail_electric rail_fast ship container cable_car subway aircraft wheelchair scooter drone" speed="10.26" length="3.48" shape="160.90,108.10 159.78,104.92 159.79,104.81"/>
    </edge>
    <edge id=":366471007_2" function="internal">
        <lane id=":366471007_2_0" index="0" disallow="tram rail_urban rail rail_electric rail_fast ship container cable_car subway aircraft wheelchair scooter drone" speed="3.65" length="1.44" shape="160.90,108.10 161.02,106.66"/>
    </edge>
    <edge id=":366471007_9" function="internal">
        <lane id=":366471007_9_0" index="0" disallow="tram rail_urban rail rail_electric rail_fast ship container cable_car subway aircraft wheelchair scooter drone" speed="10.26" length="11.88" shape="159.79,104.81 159.79,101.46 160.93,97.72 163.18,93.69"/>
    </edge>
    <edge id=":366471007_10" function="internal">
        <lane id=":366471007_10_0" index="0" disallow="tram rail_urban rail rail_electric rail_fast ship container cable_car subway aircraft wheelchair scooter drone" speed="3.65" length="3.23" shape="161.02,106.66 161.53,105.93 162.42,105.89 163.70,106.55"/>
    </edge>
    <edge id=":366471007_3" function="internal">
        <lane id=":366471007_3_0" index="0" disallow="tram rail_urban rail rail_electric rail_fast ship container cable_car subway aircraft wheelchair scooter drone" speed="9.06" length="11.84" shape="165.83,95.49 164.00,98.69 163.03,101.61 162.93,104.23 163.70,106.55"/>
    </edge>
    <edge id=":366471007_4" function="internal">
        <lane id=":366471007_4_0" index="0" disallow="tram rail_urban rail rail_electric rail_fast ship container cable_car subway aircraft wheelchair scooter drone" speed="7.45" length="16.29" shape="165.83,95.49 162.62,99.07 159.48,100.20 156.43,98.87 153.45,95.08"/>
    </edge>
    <edge id=":366471007_5" function="internal">
        <lane id=":366471007_5_0" index="0" disallow="tram rail_urban rail rail_electric rail_fast ship container cable_car subway aircraft wheelchair scooter drone" speed="3.65" length="4.67" shape="165.83,95.49 164.50,96.03 163.61,95.92 163.17,95.14 163.18,93.69"/>
    </edge>
    <edge id=":366471007_6" function="internal">
        <lane id=":366471007_6_0" index="0" disallow="tram rail_urban rail rail_electric rail_fast ship container cable_car subway aircraft wheelchair scooter drone" speed="5.76" length="9.17" shape="156.22,93.46 157.89,95.60 159.61,96.34 161.37,95.71 163.18,93.69"/>
    </edge>
    <edge id=":366471007_7" function="internal">
        <lane id=":366471007_7_0" index="0" disallow="tram rail_urban rail rail_electric rail_fast ship container cable_car subway aircraft wheelchair scooter drone" speed="27.78" length="15.08" shape="156.22,93.46 163.70,106.55"/>
    </edge>
    <edge id=":366471007_8" function="internal">
        <lane id=":366471007_8_0" index="0" disallow="tram rail_urban rail rail_electric rail_fast ship container cable_car subway aircraft wheelchair scooter drone" speed="3.65" length="1.44" shape="156.22,93.46 156.13,94.90"/>
    </edge>
    <edge id=":366471007_11" function="internal">
        <lane id=":366471007_11_0" index="0" disallow="tram rail_urban rail rail_electric rail_fast ship container cable_car subway aircraft wheelchair scooter drone" speed="3.65" length="3.23" shape="156.13,94.90 155.64,95.65 154.75,95.71 153.45,95.08"/>
    </edge>
    <edge id=":5748699207_0" function="internal">
        <lane id=":5748699207_0_0" index="0" allow="pedestrian delivery bicycle" speed="3.65" length="4.67" shape="7.94,59.71 8.14,58.28 8.68,57.57 9.57,57.58 10.82,58.31"/>
    </edge>
    <edge id=":5748699211_0" function="internal">
        <lane id=":5748699211_0_0" index="0" allow="pedestrian delivery bicycle" speed="5.56" length="6.62" shape="45.41,156.39 43.82,157.54 42.76,158.44 42.00,159.55 41.33,161.35"/>
    </edge>
    <edge id=":5748699211_1" function="internal">
        <lane id=":5748699211_1_0" index="0" allow="pedestrian delivery bicycle" speed="5.56" length="10.09" shape="45.41,156.39 42.99,157.71 40.71,157.95 38.59,157.10 36.62,155.17"/>
    </edge>
    <edge id=":5748699211_2" function="internal">
        <lane id=":5748699211_2_0" index="0" allow="pedestrian delivery bicycle" speed="3.65" length="4.67" shape="45.41,156.39 43.97,156.47 43.17,156.06 43.01,155.18 43.50,153.82"/>
    </edge>
    <edge id=":5748699211_3" function="internal">
        <lane id=":5748699211_3_0" index="0" allow="pedestrian delivery bicycle" speed="5.06" length="4.98" shape="39.15,153.22 40.13,154.18 41.18,154.59 42.30,154.48 43.50,153.82"/>
    </edge>
    <edge id=":5748699211_4" function="internal">
        <lane id=":5748699211_4_0" index="0" allow="pedestrian delivery bicycle" speed="5.56" length="8.73" shape="39.15,153.22 40.54,155.36 41.37,157.43 41.63,159.42 41.33,161.35"/>
    </edge>
    <edge id=":5748699211_5" function="internal">
        <lane id=":5748699211_5_0" index="0" allow="pedestrian delivery bicycle" speed="3.65" length="4.67" shape="39.15,153.22 39.25,154.66 38.86,155.47 37.98,155.64 36.62,155.17"/>
    </edge>
    <edge id=":5748699211_6" function="internal">
        <lane id=":5748699211_6_0" index="0" allow="pedestrian delivery bicycle" speed="5.56" length="5.63" shape="38.29,160.35 38.43,159.22 38.20,157.98 37.59,156.63 36.62,155.17"/>
    </edge>
    <edge id=":5748699211_7" function="internal">
        <lane id=":5748699211_7_0" index="0" allow="pedestrian delivery bicycle" speed="5.56" length="8.60" shape="38.29,160.35 39.15,158.00 40.10,156.53 41.44,155.34 43.50,153.82"/>
    </edge>
    <edge id=":5748699211_8" function="internal">
        <lane id=":5748699211_8_0" index="0" allow="pedestrian delivery bicycle" speed="3.65" length="4.67" shape="38.29,160.35 39.42,159.46 40.31,159.33 40.94,159.96 41.33,161.35"/>
    </edge>
    <edge id=":5748699219_0" function="internal">
        <lane id=":5748699219_0_0" index="0" disallow="tram rail_urban rail rail_electric rail_fast ship container cable_car subway aircraft wheelchair scooter drone" speed="27.78" length="10.16" shape="128.66,54.14 123.49,45.39"/>
    </edge>
    <edge id=":5748699219_1" function="internal">
        <lane id=":5748699219_1_0" index="0" allow="pedestrian delivery bicycle" speed="8.57" length="2.70" shape="128.66,54.14 127.89,52.03 127.91,51.57"/>
    </edge>
    <edge id=":5748699219_7" function="internal">
        <lane id=":5748699219_7_0" index="0" allow="pedestrian delivery bicycle" speed="8.57" length="8.26" shape="127.91,51.57 127.95,49.63 128.84,46.92 130.55,43.91"/>
    </edge>
    <edge id=":5748699219_2" function="internal">
        <lane id=":5748699219_2_0" index="0" allow="pedestrian delivery bicycle" speed="7.12" length="7.34" shape="133.21,45.70 131.93,47.86 131.20,49.71 131.02,51.25 131.40,52.48"/>
    </edge>
    <edge id=":5748699219_3" function="internal">
        <lane id=":5748699219_3_0" index="0" allow="pedestrian delivery bicycle" speed="6.67" length="12.81" shape="133.21,45.70 130.69,48.52 128.23,49.42 125.83,48.37 123.49,45.39"/>
    </edge>
    <edge id=":5748699219_4" function="internal">
        <lane id=":5748699219_4_0" index="0" allow="pedestrian delivery bicycle" speed="3.65" length="4.67" shape="133.21,45.70 131.88,46.25 130.99,46.13 130.55,45.35 130.55,43.91"/>
    </edge>
    <edge id=":5748699219_5" function="internal">
        <lane id=":5748699219_5_0" index="0" allow="pedestrian delivery bicycle" speed="4.70" length="5.67" shape="126.25,43.78 127.29,45.09 128.35,45.56 129.44,45.16 130.55,43.91"/>
    </edge>
    <edge id=":5748699219_6" function="internal">
        <lane id=":5748699219_6_0" index="0" disallow="tram rail_urban rail rail_electric rail_fast ship container cable_car subway aircraft wheelchair scooter drone" speed="27.78" length="10.12" shape="126.25,43.78 131.40,52.48"/>
    </edge>
    <edge id=":5748699825_0" function="internal">
        <lane id=":5748699825_0_0" index="0" disallow="tram rail_urban rail rail_electric rail_fast ship container cable_car subway aircraft wheelchair scooter drone" speed="3.65" length="4.67" shape="273.93,277.92 272.51,278.16 271.67,277.85 271.41,277.00 271.73,275.59"/>
    </edge>
    <edge id=":5748699828_0" function="internal">
        <lane id=":5748699828_0_0" index="0" disallow="tram rail_urban rail rail_electric rail_fast ship container cable_car subway aircraft wheelchair scooter drone" speed="8.16" length="10.99" shape="340.32,223.13 337.97,222.46 335.55,222.71 333.04,223.89 330.45,226.00"/>
    </edge>
    <edge id=":5748699828_1" function="internal">
        <lane id=":5748699828_1_0" index="0" disallow="tram rail_urban rail rail_electric rail_fast ship container cable_car subway aircraft wheelchair scooter drone" speed="27.78" length="14.78" shape="340.32,223.13 327.08,216.56"/>
    </edge>
    <edge id=":5748699828_2" function="internal">
        <lane id=":5748699828_2_0" index="0" disallow="tram rail_urban rail rail_electric rail_fast ship container cable_car subway aircraft wheelchair scooter drone" speed="3.65" length="1.44" shape="340.32,223.13 339.60,221.88"/>
    </edge>
    <edge id=":5748699828_9" function="internal">
        <lane id=":5748699828_9_0" index="0" disallow="tram rail_urban rail rail_electric rail_fast ship container cable_car subway aircraft wheelchair scooter drone" speed="3.65" length="3.23" shape="339.60,221.88 339.59,220.99 340.31,220.45 341.74,220.27"/>
    </edge>
    <edge id=":5748699828_3" function="internal">
        <lane id=":5748699828_3_0" index="0" disallow="tram rail_urban rail rail_electric rail_fast ship container cable_car subway aircraft wheelchair scooter drone" speed="27.78" length="14.78" shape="328.50,213.69 341.74,220.27"/>
    </edge>
    <edge id=":5748699828_4" function="internal">
        <lane id=":5748699828_4_0" index="0" disallow="tram rail_urban rail rail_electric rail_fast ship container cable_car subway aircraft wheelchair scooter drone" speed="7.54" length="4.53" shape="328.50,213.69 332.24,216.26"/>
    </edge>
    <edge id=":5748699828_5" function="internal">
        <lane id=":5748699828_5_0" index="0" disallow="tram rail_urban rail rail_electric rail_fast ship container cable_car subway aircraft wheelchair scooter drone" speed="3.65" length="1.44" shape="328.50,213.69 329.22,214.94"/>
    </edge>
    <edge id=":5748699828_10" function="internal">
        <lane id=":5748699828_10_0" index="0" disallow="tram rail_urban rail rail_electric rail_fast ship container cable_car subway aircraft wheelchair scooter drone" speed="7.54" length="11.13" shape="332.24,216.26 333.81,219.16 333.21,222.41 330.45,226.00"/>
    </edge>
    <edge id=":5748699828_11" function="internal">
        <lane id=":5748699828_11_0" index="0" disallow="tram rail_urban rail rail_electric rail_fast ship container cable_car subway aircraft wheelchair scooter drone" speed="3.65" length="3.23" shape="329.22,214.94 329.22,215.84 328.51,216.38 327.08,216.56"/>
    </edge>
    <edge id=":5748699828_6" function="internal">
        <lane id=":5748699828_6_0" index="0" disallow="tram rail_urban rail rail_electric rail_fast ship container cable_car subway aircraft wheelchair scooter drone" speed="5.90" length="9.10" shape="328.21,223.71 329.81,221.63 330.16,219.74 329.25,218.05 327.08,216.56"/>
    </edge>
    <edge id=":5748699828_7" function="internal">
        <lane id=":5748699828_7_0" index="0" disallow="tram rail_urban rail rail_electric rail_fast ship container cable_car subway aircraft wheelchair scooter drone" speed="9.43" length="14.96" shape="328.21,223.71 331.64,220.97 335.04,219.48 338.41,219.25 341.74,220.27"/>
    </edge>
    <edge id=":5748699828_8" function="internal">
        <lane id=":5748699828_8_0" index="0" disallow="tram rail_urban rail rail_electric rail_fast ship container cable_car subway aircraft wheelchair scooter drone" speed="3.65" length="4.67" shape="328.21,223.71 329.63,223.44 330.47,223.74 330.74,224.59 330.45,226.00"/>
    </edge>
    <edge id=":5748699829_0" function="internal">
        <lane id=":5748699829_0_0" index="0" allow="pedestrian delivery bicycle" speed="3.65" length="4.67" shape="221.45,283.84 221.31,285.28 220.80,286.01 219.90,286.04 218.63,285.36"/>
    </edge>
    <edge id=":5748772333_0" function="internal">
        <lane id=":5748772333_0_0" index="0" allow="pedestrian delivery bicycle" speed="3.65" length="4.67" shape="0.31,158.52 -1.02,157.97 -1.57,157.26 -1.33,156.40 -0.31,155.38"/>
    </edge>
    <edge id=":5748772346_0" function="internal">
        <lane id=":5748772346_0_0" index="0" allow="pedestrian delivery bicycle" speed="3.65" length="4.67" shape="266.71,239.70 268.11,239.37 268.97,239.62 269.28,240.46 269.05,241.88"/>
    </edge>
    <edge id=":5748772349_0" function="internal">
        <lane id=":5748772349_0_0" index="0" allow="pedestrian delivery bicycle" speed="5.56" length="9.24" shape="189.46,249.37 181.20,253.50"/>
    </edge>
    <edge id=":5748772349_1" function="internal">
        <lane id=":5748772349_1_0" index="0" allow="pedestrian delivery bicycle" speed="5.56" length="10.13" shape="189.46,249.37 187.03,250.07 184.77,249.81 182.68,248.59 180.76,246.41"/>
    </edge>
    <edge id=":5748772349_2" function="internal">
        <lane id=":5748772349_2_0" index="0" allow="pedestrian delivery bicycle" speed="3.65" length="4.67" shape="189.46,249.37 188.04,249.15 187.34,248.60 187.36,247.71 188.11,246.47"/>
    </edge>
    <edge id=":5748772349_3" function="internal">
        <lane id=":5748772349_3_0" index="0" allow="pedestrian delivery bicycle" speed="5.56" length="5.57" shape="183.40,244.60 184.49,245.87 185.64,246.61 186.84,246.81 188.11,246.47"/>
    </edge>
    <edge id=":5748772349_4" function="internal">
        <lane id=":5748772349_4_0" index="0" allow="pedestrian delivery bicycle" speed="5.56" length="10.76" shape="183.40,244.60 184.73,247.29 184.80,249.67 183.63,251.74 181.20,253.50"/>
    </edge>
    <edge id=":5748772349_5" function="internal">
        <lane id=":5748772349_5_0" index="0" allow="pedestrian delivery bicycle" speed="3.65" length="4.67" shape="183.40,244.60 183.42,246.04 182.99,246.83 182.10,246.95 180.76,246.41"/>
    </edge>
    <edge id=":5748772349_6" function="internal">
        <lane id=":5748772349_6_0" index="0" allow="pedestrian delivery bicycle" speed="4.92" length="5.15" shape="179.71,250.67 180.87,249.83 181.43,248.84 181.40,247.70 180.76,246.41"/>
    </edge>
    <edge id=":5748772349_7" function="internal">
        <lane id=":5748772349_7_0" index="0" allow="pedestrian delivery bicycle" speed="5.56" length="9.39" shape="179.71,250.67 188.11,246.47"/>
    </edge>
    <edge id=":5748772349_8" function="internal">
        <lane id=":5748772349_8_0" index="0" allow="pedestrian delivery bicycle" speed="3.65" length="4.67" shape="179.71,250.67 181.15,250.82 181.87,251.34 181.89,252.24 181.20,253.50"/>
    </edge>
    <edge id=":5748772351_0" function="internal">
        <lane id=":5748772351_0_0" index="0" allow="pedestrian delivery bicycle" speed="5.29" length="5.20" shape="135.85,186.11 134.79,185.07 133.68,184.55 132.52,184.57 131.30,185.11"/>
    </edge>
    <edge id=":5748772351_1" function="internal">
        <lane id=":5748772351_1_0" index="0" allow="pedestrian delivery bicycle" speed="3.65" length="4.67" shape="135.85,186.11 135.73,184.67 136.11,183.86 136.98,183.67 138.35,184.12"/>
    </edge>
    <edge id=":5748772351_2" function="internal">
        <lane id=":5748772351_2_0" index="0" allow="pedestrian delivery bicycle" speed="5.01" length="5.03" shape="138.91,179.76 137.93,180.75 137.52,181.80 137.66,182.92 138.35,184.12"/>
    </edge>
    <edge id=":5748772351_3" function="internal">
        <lane id=":5748772351_3_0" index="0" disallow="tram rail_urban rail rail_electric rail_fast ship container cable_car subway aircraft wheelchair scooter drone" speed="27.78" length="9.18" shape="138.91,179.76 131.30,185.11"/>
        <lane id=":5748772351_3_1" index="1" disallow="tram rail_urban rail rail_electric rail_fast ship container cable_car subway aircraft wheelchair scooter drone" speed="27.78" length="9.18" shape="136.97,177.21 129.56,182.42"/>
    </edge>
    <edge id=":5748772352_0" function="internal">
        <lane id=":5748772352_0_0" index="0" allow="pedestrian delivery bicycle" speed="3.65" length="4.67" shape="100.99,120.80 99.55,120.90 98.74,120.51 98.57,119.63 99.03,118.26"/>
    </edge>
    <edge id=":5748772356_0" function="internal">
        <lane id=":5748772356_0_0" index="0" allow="pedestrian delivery bicycle" speed="5.01" length="5.03" shape="150.91,90.73 150.05,89.65 149.06,89.11 147.92,89.12 146.66,89.68"/>
    </edge>
    <edge id=":5748772356_1" function="internal">
        <lane id=":5748772356_1_0" index="0" disallow="tram rail_urban rail rail_electric rail_fast ship container cable_car subway aircraft wheelchair scooter drone" speed="27.78" length="9.43" shape="150.91,90.73 146.07,82.64"/>
    </edge>
    <edge id=":5748772356_2" function="internal">
        <lane id=":5748772356_2_0" index="0" disallow="tram rail_urban rail rail_electric rail_fast ship container cable_car subway aircraft wheelchair scooter drone" speed="27.78" length="9.50" shape="148.80,80.97 153.67,89.12"/>
    </edge>
    <edge id=":5748772356_3" function="internal">
        <lane id=":5748772356_3_0" index="0" allow="pedestrian delivery bicycle" speed="6.89" length="3.30" shape="148.80,80.97 149.89,83.52 149.90,84.05"/>
    </edge>
    <edge id=":5748772356_7" function="internal">
        <lane id=":5748772356_7_0" index="0" allow="pedestrian delivery bicycle" speed="6.89" length="6.91" shape="149.90,84.05 149.90,85.82 148.82,87.87 146.66,89.68"/>
    </edge>
    <edge id=":5748772356_4" function="internal">
        <lane id=":5748772356_4_0" index="0" allow="pedestrian delivery bicycle" speed="5.08" length="5.07" shape="144.97,86.95 146.06,86.06 146.60,85.04 146.61,83.90 146.07,82.64"/>
    </edge>
    <edge id=":5748772356_5" function="internal">
        <lane id=":5748772356_5_0" index="0" allow="pedestrian delivery bicycle" speed="6.84" length="10.28" shape="144.97,86.95 147.56,85.82 149.88,85.81 151.92,86.91 153.67,89.12"/>
    </edge>
    <edge id=":5748772356_6" function="internal">
        <lane id=":5748772356_6_0" index="0" allow="pedestrian delivery bicycle" speed="3.65" length="4.67" shape="144.97,86.95 146.41,87.00 147.18,87.47 147.26,88.36 146.66,89.68"/>
    </edge>
    <edge id=":5748772359_0" function="internal">
        <lane id=":5748772359_0_0" index="0" allow="pedestrian delivery bicycle" speed="4.94" length="5.12" shape="134.13,63.13 133.22,62.04 132.19,61.54 131.06,61.63 129.82,62.32"/>
    </edge>
    <edge id=":5748772359_1" function="internal">
        <lane id=":5748772359_1_0" index="0" disallow="tram rail_urban rail rail_electric rail_fast ship container cable_car subway aircraft wheelchair scooter drone" speed="27.78" length="9.42" shape="134.13,63.13 129.23,55.08"/>
    </edge>
    <edge id=":5748772359_2" function="internal">
        <lane id=":5748772359_2_0" index="0" disallow="tram rail_urban rail rail_electric rail_fast ship container cable_car subway aircraft wheelchair scooter drone" speed="27.78" length="9.40" shape="131.97,53.43 136.86,61.46"/>
    </edge>
    <edge id=":5748772359_3" function="internal">
        <lane id=":5748772359_3_0" index="0" allow="pedestrian delivery bicycle" speed="7.15" length="3.06" shape="131.97,53.43 132.96,55.85 132.96,56.29"/>
    </edge>
    <edge id=":5748772359_7" function="internal">
        <lane id=":5748772359_7_0" index="0" allow="pedestrian delivery bicycle" speed="7.15" length="7.15" shape="132.96,56.29 132.93,58.14 131.88,60.30 129.82,62.32"/>
    </edge>
    <edge id=":5748772359_4" function="internal">