<configuration>
    <input>
        <net-file value="RL.net.xml"/>
        <route-files value="RL.rou.xml"/>
        
        <additional-files value="emission.add.xml,RL.add.xml"/>
    </input>
    
    <time>
        <step-length value="0.1"/>
    </time>
    
</configuration>