<?xml version="1.0" encoding="UTF-8"?>

<!-- generated on 2025-11-17T19:19:52.571112+07:00 by Eclipse SUMO netedit 1.25.0
-->

<additional xmlns:xsi="http://www.w3.org/2001/XMLSchema-instance" xsi:noNamespaceSchemaLocation="http://sumo.dlr.de/xsd/additional_file.xsd">
    <!-- Detectors -->
    <inductionLoop id="e1_0" lane="568236971#1_0" pos="7.96" period="300.00" file="e1_0.xml"/>
    <inductionLoop id="e1_1" lane="725686334#3_1" pos="46.02" period="300.00" file="e1_1.xml"/>
    <inductionLoop id="e1_2" lane="602009562#1_0" pos="10.21" period="300.00" file="e1_2.xml"/>
    <inductionLoop id="e1_3" lane="1116686585#1_1" pos="191.77" period="300.00" file="e1_3.xml"/>
    <inductionLoop id="e1_4" lane="1116686584#2_1" pos="34.90" period="300.00" file="e1_4.xml"/>
    <inductionLoop id="e1_5" lane="604177378#1_1" pos="196.66" period="300.00" file="e1_5.xml"/>
    <inductionLoop id="e1_6" lane="409056759#1_1" pos="23.30" period="300.00" file="e1_6.xml"/>
    <inductionLoop id="e1_7" lane="1422419156_1" pos="202.37" period="300.00" file="e1_7.xml"/>
    <instantInductionLoop id="e1i_0" lane="602009562#1_0" pos="8.95" file="e1i_0.xml"/>
    <instantInductionLoop id="e1i_1" lane="1116686584#2_0" pos="33.98" file="e1i_1.xml"/>
    <instantInductionLoop id="e1i_2" lane="1116686585#1_0" pos="191.66" file="e1i_2.xml"/>
    <instantInductionLoop id="e1i_3" lane="1116686632_0" pos="209.63" file="e1i_3.xml"/>
    <laneAreaDetector id="e2_0" lane="602009562#1_1" pos="1.39" length="10.00" period="300.00" file="e2_0.xml"/>
    <laneAreaDetector id="e2_1" lanes="359552103_2 568236971#0_1 568236971#1_1" pos="749.90" endPos="13.01" period="300.00" file="e2_1.xml"/>
    <laneAreaDetector id="e2_2" lane="725686334#3_0" pos="38.29" length="10.00" period="300.00" file="e2_2.xml"/>
    <laneAreaDetector id="e2_4" lanes="1116686584#1_2 1116686584#2_2" pos="81.04" endPos="41.11" period="300.00" file="e2_4.xml"/>
</additional>
