<?xml version="1.0" encoding="UTF-8"?>

<!-- generated on 2025-11-17 14:54:24.011828 by Eclipse SUMO randomTrips.py v1_25_0+0000-ac6c5a6752d
<configuration>
    <net-file value="Nga6NguyenThaiSon.net.xml"/>
    <route-file value="routes.rou.xmll"/>
    <end value="100.0"/>
</configuration>
-->

<routes xmlns:xsi="http://www.w3.org/2001/XMLSchema-instance" xsi:noNamespaceSchemaLocation="http://sumo.dlr.de/xsd/routes_file.xsd">
    <trip id="0" depart="0.00" from="32588982#6" to="-125294538"/>
    <trip id="1" depart="1.00" from="404517247#3" to="389711233#3"/>
    <trip id="2" depart="2.00" from="602009561" to="-32587168#0"/>
    <trip id="3" depart="3.00" from="125294538" to="-125294538"/>
    <trip id="4" depart="4.00" from="-389711234" to="32583234#0"/>
    <trip id="5" depart="5.00" from="-125294538" to="-389711233#2"/>
    <trip id="6" depart="6.00" from="359552103" to="32587168#2"/>
    <trip id="7" depart="7.00" from="-389711234" to="32587529#2"/>
    <trip id="8" depart="8.00" from="493174206#1" to="404516716#0"/>
    <trip id="9" depart="9.00" from="1221432656#0" to="-32588982#4"/>
    <trip id="10" depart="10.00" from="666026431#0" to="1221432658"/>
    <trip id="11" depart="11.00" from="-32583234#2" to="-32587168#1"/>
    <trip id="12" depart="12.00" from="55880458" to="32588982#1"/>
    <trip id="13" depart="13.00" from="568236971#0" to="32587529#1"/>
    <trip id="14" depart="14.00" from="-493174206#0" to="1116686584#2"/>
    <trip id="15" depart="15.00" from="-32583234#0" to="-493174206#1"/>
    <trip id="16" depart="16.00" from="32588982#5" to="1225659500#2"/>
    <trip id="17" depart="17.00" from="1221432658" to="-389711234"/>
    <trip id="18" depart="18.00" from="359552103" to="32588982#2"/>
    <trip id="19" depart="19.00" from="725686334#2" to="32588982#5"/>
    <trip id="20" depart="20.00" from="-493174206#0" to="-125294538"/>
    <trip id="21" depart="21.00" from="1116686585#0" to="1116686584#0"/>
    <trip id="22" depart="22.00" from="389711233#0" to="125294538"/>
    <trip id="23" depart="23.00" from="-611082092" to="-611082071"/>
    <trip id="24" depart="24.00" from="1232611233#0" to="-493174206#0"/>
    <trip id="25" depart="25.00" from="725686334#3" to="32583234#1"/>
    <trip id="26" depart="26.00" from="-32583234#2" to="-125294539#1"/>
    <trip id="27" depart="27.00" from="493174206#0" to="126327313"/>
    <trip id="28" depart="28.00" from="725686334#3" to="32587168#0"/>
    <trip id="29" depart="29.00" from="725686334#0" to="568236972#0"/>
    <trip id="30" depart="30.00" from="389711233#3" to="32587168#1"/>
    <trip id="31" depart="31.00" from="1116686584#1" to="32588982#5"/>
    <trip id="32" depart="32.00" from="32588982#2" to="-32588982#4"/>
    <trip id="33" depart="33.00" from="409056759#0" to="32587168#1"/>
    <trip id="34" depart="34.00" from="-125294536" to="604177378#0"/>
    <trip id="35" depart="35.00" from="1116686584#2" to="-126327313"/>
    <trip id="36" depart="36.00" from="-32583234#1" to="241738918#1"/>
    <trip id="37" depart="37.00" from="409056759#0" to="-32588982#1"/>
    <trip id="38" depart="38.00" from="1268087048" to="32587168#2"/>
    <trip id="39" depart="39.00" from="-611082092" to="568236972#1"/>
    <trip id="40" depart="40.00" from="125294538" to="-389711234"/>
    <trip id="41" depart="41.00" from="-389711233#1" to="1221432656#0"/>
    <trip id="42" depart="42.00" from="725686334#3" to="32588982#6"/>
    <trip id="43" depart="43.00" from="125294539#1" to="32583234#2"/>
    <trip id="44" depart="44.00" from="1116686632" to="32587529#2"/>
    <trip id="45" depart="45.00" from="-493174206#0" to="-493174206#0"/>
    <trip id="46" depart="46.00" from="-1343635389" to="32588982#4"/>
    <trip id="47" depart="47.00" from="568236971#0" to="-32583234#1"/>
    <trip id="48" depart="48.00" from="-493174206#1" to="389711233#2"/>
    <trip id="49" depart="49.00" from="-389711233#3" to="-32588982#1"/>
    <trip id="50" depart="50.00" from="611082071" to="32587529#0"/>
    <trip id="51" depart="51.00" from="1268087048" to="493174206#0"/>
    <trip id="52" depart="52.00" from="493174206#2" to="-389711233#1"/>
    <trip id="53" depart="53.00" from="404517247#2" to="389711233#2"/>
    <trip id="54" depart="54.00" from="725686334#2" to="-32587168#1"/>
    <trip id="55" depart="55.00" from="1232611233#0" to="1221432658"/>
    <trip id="56" depart="56.00" from="568236971#0" to="-611082071"/>
    <trip id="57" depart="57.00" from="125294538" to="1116686584#1"/>
    <trip id="58" depart="58.00" from="125294539#1" to="568236972#0"/>
    <trip id="59" depart="59.00" from="725686334#3" to="55880457"/>
    <trip id="60" depart="60.00" from="725686334#0" to="604177378#0"/>
    <trip id="61" depart="61.00" from="55880458" to="-32588982#5"/>
    <trip id="62" depart="62.00" from="1422419157" to="-389711234"/>
    <trip id="63" depart="63.00" from="1232611233#0" to="-32583234#0"/>
    <trip id="64" depart="64.00" from="-611082092" to="493174206#0"/>
    <trip id="65" depart="65.00" from="-32588982#3" to="1116686585#0"/>
    <trip id="66" depart="66.00" from="725686334#0" to="32587529#1"/>
    <trip id="67" depart="67.00" from="-32583234#0" to="-389711233#1"/>
    <trip id="68" depart="68.00" from="32588982#0" to="389711233#3"/>
    <trip id="69" depart="69.00" from="-493174206#1" to="-32588982#0"/>
    <trip id="70" depart="70.00" from="602009561" to="-611082071"/>
    <trip id="71" depart="71.00" from="32588982#0" to="32588982#3"/>
    <trip id="72" depart="72.00" from="125294536" to="32587529#2"/>
    <trip id="73" depart="73.00" from="32583234#1" to="604177378#1"/>
    <trip id="74" depart="74.00" from="-493174206#1" to="125294538"/>
    <trip id="75" depart="75.00" from="389711233#2" to="1116686585#0"/>
    <trip id="76" depart="76.00" from="1116686585#0" to="404517252#2"/>
    <trip id="77" depart="77.00" from="-1343635389" to="1343635389"/>
    <trip id="78" depart="78.00" from="725686334#3" to="725686334#3"/>
    <trip id="79" depart="79.00" from="-32583234#0" to="-389711234"/>
    <trip id="80" depart="80.00" from="-611082092" to="604177378#0"/>
    <trip id="81" depart="81.00" from="568236972#1" to="568236972#2"/>
    <trip id="82" depart="82.00" from="1221432658" to="-32588982#4"/>
    <trip id="83" depart="83.00" from="389711233#1" to="604177378#1"/>
    <trip id="84" depart="84.00" from="-32587168#4" to="-32587168#3"/>
    <trip id="85" depart="85.00" from="-32587168#1" to="32587168#3"/>
    <trip id="86" depart="86.00" from="404517247#0" to="-389711233#3"/>
    <trip id="87" depart="87.00" from="32588982#5" to="1090460384"/>
    <trip id="88" depart="88.00" from="125294538" to="1116686584#1"/>
    <trip id="89" depart="89.00" from="32588982#6" to="1090460384"/>
    <trip id="90" depart="90.00" from="404517247#3" to="32587168#3"/>
    <trip id="91" depart="91.00" from="125294539#0" to="-1090460384"/>
    <trip id="92" depart="92.00" from="-32583234#0" to="568236972#2"/>
    <trip id="93" depart="93.00" from="602009562#1" to="32587168#2"/>
    <trip id="94" depart="94.00" from="-32588982#2" to="-32588982#1"/>
    <trip id="95" depart="95.00" from="493174206#0" to="568236972#0"/>
    <trip id="96" depart="96.00" from="602009562#0" to="-389711234"/>
    <trip id="97" depart="97.00" from="-493174206#2" to="-32587168#2"/>
    <trip id="98" depart="98.00" from="1232611233#1" to="32588982#3"/>
    <trip id="99" depart="99.00" from="-32588982#3" to="604177378#0"/>
</routes>
